#
#	File Created by: Spartan '08 Export
#

@<TRIPOS>MOLECULE
M0003
23 24
SMALL
MULLIKEN_CHARGES


@<TRIPOS>ATOM
    1   H1        -0.719775443    -2.026788180    -1.659085679       H   1  M0003    0.136897
    2   C2        -0.388579804    -1.142188707    -2.195728996    C.ar   1  M0003   -0.171524
    3   C3         0.389729812     1.141678845    -3.589459397    C.ar   1  M0003   -0.133169
    4   C4        -0.389731611    -1.141678898    -3.589458603    C.ar   1  M0003   -0.133169
    5   C5         0.000001217     0.000000000    -1.475282080    C.ar   1  M0003    0.085157
    6   C6         0.388580810     1.142188707    -2.195729842    C.ar   1  M0003   -0.171524
    7   C7        -0.000001588    -0.000000053    -4.292046271    C.ar   1  M0003   -0.123912
    8   H8        -0.703360266    -2.032406399    -4.127126830       H   1  M0003    0.136913
    9   H9         0.719777136     2.026788286    -1.659087160       H   1  M0003    0.136897
   10   H10       -0.000002646     0.000000000    -5.378568363       H   1  M0003    0.136281
   11   H11        0.703357038     2.032406399    -4.127128365       H   1  M0003    0.136913
   12   C12        0.000002011     0.000000318     0.008529910    C.ar   1  M0003    0.102204
   13   C13        0.000001058     0.000000159     2.830102361    C.ar   1  M0003    0.132247
   14   C14       -0.389718646     1.141266563     0.732099605    C.ar   1  M0003   -0.179714
   15   C15        0.389722721    -1.141265876     0.732099763    C.ar   1  M0003   -0.179714
   16   C16        0.391245533    -1.148195713     2.121668981    C.ar   1  M0003   -0.141152
   17   C17       -0.391242623     1.148196242     2.121668770    C.ar   1  M0003   -0.141152
   18   H18       -0.720830516     2.025867941     0.196835905       H   1  M0003    0.147415
   19   H19        0.720834379    -2.025867359     0.196836169       H   1  M0003    0.147415
   20   H20        0.702881414    -2.033952602     2.665964356       H   1  M0003    0.159799
   21   H21       -0.702879774     2.033952760     2.665963986       H   1  M0003    0.159799
   22   C22       -0.000001588    -0.000000582     4.263100501     C.1   1  M0003    0.235639
   23   N23       -0.000009366    -0.000002434     5.426707224     N.1   1  M0003   -0.478548


@<TRIPOS>BOND
    1      1      2    1
    2      2      5    ar
    3      5      6    ar
    4      3      6    ar
    5      3      7    ar
    6      4      7    ar
    7      2      4    ar
    8      6      9    1
    9      7     10    1
   10      3     11    1
   11      4      8    1
   12     12     15    ar
   13     15     16    ar
   14     13     16    ar
   15     13     17    ar
   16     14     17    ar
   17     12     14    ar
   18     16     20    1
   19     17     21    1
   20     14     18    1
   21     15     19    1
   22      5     12    1
   23     13     22    1
   24     22     23    3
