#
#	File Created by: Spartan '08 Export
#

@<TRIPOS>MOLECULE
M0001
38 39
SMALL
MULLIKEN_CHARGES


@<TRIPOS>ATOM
    1   H1        -1.786522719     4.193683432     0.203395265       H   1  M0001    0.146273
    2   C2        -1.338840406     4.208777889     1.192303516    C.ar   1  M0001   -0.180447
    3   C3        -0.256641637     4.245526691     3.762800478    C.ar   1  M0001   -0.141540
    4   C4        -0.791287311     3.026106347     1.721408230    C.ar   1  M0001    0.104587
    5   C5        -1.348490319     5.389854808     1.923902148    C.ar   1  M0001   -0.141701
    6   C6        -0.806527291     5.418445607     3.219765814    C.ar   1  M0001    0.131878
    7   C7        -0.250788675     3.071719129     3.019428716    C.ar   1  M0001   -0.180687
    8   H8        -1.782296288     6.291718893     1.504379037       H   1  M0001    0.158731
    9   H9         0.202688232     2.179743776     3.440045795       H   1  M0001    0.146115
   10   H10        0.171202042     4.265861641     4.760012150       H   1  M0001    0.158750
   11   C11       -0.785294117     1.769420194     0.934724124    C.ar   1  M0001    0.084421
   12   C12       -0.780440347    -0.639574382    -0.573956804    C.ar   1  M0001    0.179874
   13   C13       -0.582458297     1.783933773    -0.455255471    C.ar   1  M0001   -0.172458
   14   C14       -0.987368980     0.524969884     1.554243703    C.ar   1  M0001   -0.172079
   15   C15       -0.986592360    -0.652909325     0.812218219    C.ar   1  M0001   -0.185905
   16   C16       -0.579688373     0.602104205    -1.191349039    C.ar   1  M0001   -0.186237
   17   H17       -0.400346160     2.727929713    -0.961688391       H   1  M0001    0.134853
   18   H18       -1.180367717     0.482030769     2.622690643       H   1  M0001    0.134995
   19   H19       -1.160335986    -1.600648504     1.317395825       H   1  M0001    0.128268
   20   H20       -0.413246755     0.644180286    -2.265719745       H   1  M0001    0.128354
   21   C21       -0.814180143     6.632453158     3.980767267     C.1   1  M0001    0.234800
   22   N22       -0.820247475     7.618272920     4.599062966     N.1   1  M0001   -0.479788
   23   C23       -0.729573949    -1.926391026    -1.367247791     C.3   1  M0001   -0.351718
   24   H24       -1.098779101    -1.749286068    -2.386136458       H   1  M0001    0.142251
   25   H25       -1.404758503    -2.664934155    -0.915085889       H   1  M0001    0.142475
   26   C26        0.689240818    -2.525764943    -1.445192547     C.3   1  M0001   -0.249922
   27   H27        1.064297451    -2.692112368    -0.425676064       H   1  M0001    0.135892
   28   H28        1.365613481    -1.788933914    -1.900314930       H   1  M0001    0.136214
   29   C29        0.747115637    -3.838307686    -2.236695286     C.3   1  M0001   -0.245476
   30   H30        0.366357757    -3.669595369    -3.255217974       H   1  M0001    0.128491
   31   H31        0.067461442    -4.571556663    -1.777245082       H   1  M0001    0.128411
   32   C32        2.157746152    -4.435109855    -2.315931181     C.3   1  M0001   -0.247739
   33   H33        2.537494204    -4.599187428    -1.297470618       H   1  M0001    0.131951
   34   H34        2.834853207    -3.702536478    -2.777660921       H   1  M0001    0.132177
   35   C35        2.211703526    -5.749254681    -3.101875339     C.3   1  M0001   -0.442054
   36   H36        3.229693969    -6.153673547    -3.137861915       H   1  M0001    0.143818
   37   H37        1.873044058    -5.606799704    -4.135489203       H   1  M0001    0.142136
   38   H38        1.566560879    -6.510156649    -2.645473035       H   1  M0001    0.142036


@<TRIPOS>BOND
    1      1      2    1
    2      2      5    ar
    3      5      6    ar
    4      3      6    ar
    5      3      7    ar
    6      4      7    ar
    7      2      4    ar
    8      7      9    1
    9      3     10    1
   10      5      8    1
   11     11     14    ar
   12     14     15    ar
   13     12     15    ar
   14     12     16    ar
   15     13     16    ar
   16     11     13    ar
   17     15     19    1
   18     16     20    1
   19     13     17    1
   20     14     18    1
   21      4     11    1
   22      6     21    1
   23     21     22    3
   24     23     24    1
   25     23     25    1
   26     12     23    1
   27     26     27    1
   28     26     28    1
   29     23     26    1
   30     29     30    1
   31     29     31    1
   32     26     29    1
   33     32     33    1
   34     32     34    1
   35     29     32    1
   36     35     36    1
   37     35     37    1
   38     35     38    1
   39     32     35    1
