@<TRIPOS>MOLECULE
*****
 69 72 0 0 0
SMALL
USER_CHARGES

@<TRIPOS>ATOM
	1	C	-10.210794	1.664971	-0.717145	C.2	1	LIG1	-0.284106
	2	C	-9.992019	2.446082	0.417592	C.2	1	LIG1	0.350603
	3	C	-9.421169	0.535641	-0.954117	C.2	1	LIG1	-0.106316
	4	C	-8.974208	2.090485	1.310510	C.2	1	LIG1	-0.192679
	5	O	-10.727984	3.562730	0.708657	O.3	1	LIG1	-0.568645
	6	C	-8.400226	0.158841	-0.075991	C.2	1	LIG1	0.050964
	7	H	-9.621549	-0.047520	-1.846484	H	1	LIG1	0.099014
	8	C	-8.197875	0.966809	1.057903	C.2	1	LIG1	-0.136728
	9	H	-8.804961	2.706284	2.188400	H	1	LIG1	0.146485
	10	H	-7.402429	0.715050	1.754354	H	1	LIG1	0.073169
	11	C	-7.542157	-1.107834	-0.267927	C.3	1	LIG1	0.254084
	12	C	-6.046776	-0.745839	-0.157032	C.2	1	LIG1	0.052544
	13	C	-7.977190	-2.137836	0.802395	C.3	1	LIG1	-0.212309
	14	H	-7.794623	-1.773404	1.818472	H	1	LIG1	0.047351
	15	H	-7.454455	-3.093246	0.678293	H	1	LIG1	0.065282
	16	H	-9.050631	-2.330549	0.707121	H	1	LIG1	0.030824
	17	C	-7.759527	-1.761080	-1.654138	C.3	1	LIG1	-0.265990
	18	H	-7.532444	-1.070455	-2.472666	H	1	LIG1	0.056822
	19	H	-8.791625	-2.110081	-1.773597	H	1	LIG1	0.075635
	20	H	-7.099876	-2.628686	-1.757972	H	1	LIG1	0.050627
	21	C	-5.530939	0.302767	-0.937223	C.2	1	LIG1	-0.118941
	22	C	-4.180355	0.633631	-0.910938	C.2	1	LIG1	-0.196011
	23	H	-6.201237	0.880214	-1.567410	H	1	LIG1	0.074185
	24	C	-5.149496	-1.443418	0.660438	C.2	1	LIG1	-0.110656
	25	C	-3.316252	-0.086725	-0.088835	C.2	1	LIG1	0.333849
	26	H	-3.787142	1.448181	-1.510955	H	1	LIG1	0.140188
	27	C	-3.789856	-1.121862	0.708639	C.2	1	LIG1	-0.240991
	28	H	-5.498650	-2.257203	1.286164	H	1	LIG1	0.095139
	29	H	-3.116479	-1.678436	1.347901	H	1	LIG1	0.161580
	30	H	-10.996263	1.933766	-1.421936	H	1	LIG1	0.119867
	31	H	-11.391220	3.690855	0.012777	H	1	LIG1	0.410841
	32	O	-1.992408	0.367919	-0.056196	O.3	1	LIG1	-0.426253
	33	C	-0.968472	-0.511981	-0.044226	C.2	1	LIG1	0.912622
	34	O	-1.036333	-1.714248	-0.060454	O.2	1	LIG1	-0.569522
	35	O	0.152361	0.243256	-0.009790	O.3	1	LIG1	-0.418741
	36	C	1.410000	-0.368821	0.022735	C.2	1	LIG1	0.328786
	37	C	2.336902	0.197096	0.895503	C.2	1	LIG1	-0.200463
	38	C	1.770903	-1.415030	-0.818286	C.2	1	LIG1	-0.227822
	39	C	3.634471	-0.302692	0.930499	C.2	1	LIG1	-0.111203
	40	H	2.033767	1.024080	1.529756	H	1	LIG1	0.141921
	41	C	3.077839	-1.907474	-0.762079	C.2	1	LIG1	-0.114073
	42	H	1.048382	-1.850962	-1.496608	H	1	LIG1	0.156890
	43	C	4.033697	-1.369597	0.108030	C.2	1	LIG1	0.036996
	44	H	4.354319	0.153767	1.604164	H	1	LIG1	0.073921
	45	H	3.337785	-2.727989	-1.421869	H	1	LIG1	0.096605
	46	C	5.464683	-1.929961	0.235438	C.3	1	LIG1	0.298501
	47	C	5.551632	-2.677168	1.588433	C.3	1	LIG1	-0.250241
	48	H	5.389504	-2.006186	2.438097	H	1	LIG1	0.052041
	49	H	6.524090	-3.166515	1.713819	H	1	LIG1	0.074430
	50	H	4.780852	-3.453580	1.626610	H	1	LIG1	0.045534
	51	C	5.799664	-2.949411	-0.880106	C.3	1	LIG1	-0.270318
	52	H	5.157001	-3.834868	-0.818394	H	1	LIG1	0.078882
	53	H	6.836840	-3.282357	-0.771476	H	1	LIG1	0.052195
	54	H	5.693073	-2.513697	-1.878731	H	1	LIG1	0.058429
	55	C	6.486324	-0.779758	0.133591	C.2	1	LIG1	0.016517
	56	C	6.419048	0.109230	-0.952415	C.2	1	LIG1	-0.102132
	57	C	7.524527	-0.596429	1.054624	C.2	1	LIG1	-0.099979
	58	C	7.350710	1.128662	-1.117371	C.2	1	LIG1	-0.196146
	59	H	5.616389	0.010318	-1.677821	H	1	LIG1	0.073907
	60	C	8.373839	1.276519	-0.183364	C.2	1	LIG1	0.308159
	61	H	7.292123	1.816304	-1.955053	H	1	LIG1	0.138746
	62	C	8.467184	0.425939	0.911821	C.2	1	LIG1	-0.230651
	63	H	7.617739	-1.252429	1.913163	H	1	LIG1	0.094660
	64	H	9.263549	0.543497	1.635445	H	1	LIG1	0.159739
	65	O	9.216304	2.377094	-0.379445	O.3	1	LIG1	-0.363648
	66	C	10.542325	2.268519	-0.173651	C.2	1	LIG1	0.843238
	67	O	11.161067	1.293893	0.180955	O.2	1	LIG1	-0.567347
	68	O	11.082296	3.473313	-0.440814	O.3	1	LIG1	-0.565033
	69	H	12.037119	3.370529	-0.286678	H	1	LIG1	0.415170
@<TRIPOS>BOND
1	1	2	2	# 1.618
2	1	3	1	# 0.98011
3	1	30	1	# 0.98357
4	2	4	1	# 0.974515
5	2	5	1	# 0.985735
6	3	6	2	# 1.64332
7	3	7	1	# 0.98342
8	4	8	2	# 1.6778
9	4	9	1	# 0.983985
10	5	31	1	# 0.99059
11	6	8	1	# 0.976035
12	6	11	1	# 0.96369
13	8	10	1	# 0.983465
14	11	12	1	# 0.96365
15	11	13	1	# 0.97562
16	11	17	1	# 0.975465
17	12	21	1	# 0.976285
18	12	24	2	# 1.63965
19	13	14	1	# 0.991765
20	13	15	1	# 0.99033
21	13	16	1	# 0.991695
22	17	18	1	# 0.99175
23	17	19	1	# 0.990255
24	17	20	1	# 0.99178
25	21	22	2	# 1.66381
26	21	23	1	# 0.98341
27	22	25	1	# 0.977075
28	22	26	1	# 0.983845
29	24	27	1	# 0.97933
30	24	28	1	# 0.983295
31	25	27	2	# 1.62915
32	25	32	1	# 0.97564
33	27	29	1	# 0.98342
34	32	33	1	# 0.940375
35	33	34	2	# 1.8256
36	33	35	1	# 0.93967
37	35	36	1	# 0.975765
38	36	37	1	# 0.97702
39	36	38	2	# 1.62859
40	37	39	2	# 1.66312
41	37	40	1	# 0.98386
42	38	41	1	# 0.979415
43	38	42	1	# 0.98349
44	39	43	1	# 0.976265
45	39	44	1	# 0.983485
46	41	43	2	# 1.63908
47	41	45	1	# 0.98332
48	43	46	1	# 0.963775
49	46	47	1	# 0.97541
50	46	51	1	# 0.975425
51	46	55	1	# 0.963815
52	47	48	1	# 0.99179
53	47	49	1	# 0.99028
54	47	50	1	# 0.9917
55	51	52	1	# 0.99028
56	51	53	1	# 0.99171
57	51	54	1	# 0.99178
58	55	56	1	# 0.97626
59	55	57	2	# 1.6395
60	56	58	2	# 1.66355
61	56	59	1	# 0.98349
62	57	62	1	# 0.97933
63	57	63	1	# 0.98331
64	58	60	1	# 0.97716
65	58	61	1	# 0.983845
66	60	62	2	# 1.62914
67	60	65	1	# 0.975725
68	62	64	1	# 0.98336
69	65	66	1	# 0.93971
70	66	67	2	# 1.82339
71	66	68	1	# 0.94811
72	68	69	1	# 0.98727
