@<TRIPOS>MOLECULE
*****
 12 12 0 0 0
SMALL
USER_CHARGES

@<TRIPOS>ATOM
	1	C	-1.102083	0.858213	-0.000002	C	1	LIG1	-0.087998
	2	C	-1.294293	-0.525301	-0.000002	C	1	LIG1	-0.091425
	3	C	-0.192222	-1.383423	0.000013	C	1	LIG1	-0.073604
	4	H	-2.301561	-0.934233	-0.000015	H	1	LIG1	0.086745
	5	C	1.102099	-0.858191	-0.000013	C	1	LIG1	-0.087999
	6	H	-0.341782	-2.460204	0.000022	H	1	LIG1	0.080729
	7	C	1.294303	0.525280	0.000010	C	1	LIG1	-0.091425
	8	H	1.959782	-1.526173	-0.000041	H	1	LIG1	0.085553
	9	C	0.192197	1.383424	-0.000001	C	1	LIG1	-0.073602
	10	H	-1.959806	1.526141	-0.000009	H	1	LIG1	0.085553
	11	H	0.341818	2.460199	-0.000003	H	1	LIG1	0.080727
	12	H	2.301550	0.934254	0.000016	H	1	LIG1	0.086745
@<TRIPOS>BOND
1	1	2	1	# 0.982675
2	1	9	2	# 1.64906
3	1	10	1	# 0.98547
4	2	3	2	# 1.64908
5	2	4	1	# 0.98547
6	3	5	1	# 0.982675
7	3	6	1	# 0.98547
8	5	7	2	# 1.64907
9	5	8	1	# 0.98547
10	7	9	1	# 0.982675
11	7	12	1	# 0.98547
12	9	11	1	# 0.98547
