@<TRIPOS>MOLECULE
*****
 48 50 0 0 0
SMALL
USER_CHARGES

@<TRIPOS>ATOM
	1	O	-10.773184	0.888445	1.240275	O.3	1	LIG1	-0.585686
	2	C	-10.355187	1.172297	-0.028208	C.2	1	LIG1	0.718382
	3	O	-11.129707	1.091577	-0.946579	O.2	1	LIG1	-0.483120
	4	C	-8.883825	1.541714	-0.167653	C.3	1	LIG1	-0.330080
	5	C	-7.948170	0.343147	0.090135	C.3	1	LIG1	0.148294
	6	C	-6.471132	0.706595	-0.100348	C.3	1	LIG1	0.112808
	7	C	-5.543330	-0.489844	0.121029	C.3	1	LIG1	-0.349318
	8	C	-4.081059	-0.134524	-0.048572	C.2	1	LIG1	0.796667
	9	O	-3.639632	0.962549	-0.282086	O.2	1	LIG1	-0.523589
	10	O	-3.316988	-1.266479	0.101744	O.3	1	LIG1	-0.469970
	11	C	-1.930435	-1.247097	0.000965	C.2	1	LIG1	0.400496
	12	C	-1.363533	-2.374526	-0.598543	C.2	1	LIG1	-0.208363
	13	C	0.017911	-2.482598	-0.684019	C.2	1	LIG1	-0.044217
	14	C	0.839313	-1.466797	-0.172792	C.2	1	LIG1	-0.131489
	15	C	0.253775	-0.344421	0.429788	C.2	1	LIG1	-0.008358
	16	C	-1.130550	-0.227703	0.523780	C.2	1	LIG1	-0.262909
	17	C	2.307381	-1.643881	-0.297383	C.2	1	LIG1	0.665548
	18	O	2.851312	-2.601920	-0.797619	O.2	1	LIG1	-0.489606
	19	O	2.985297	-0.567580	0.227609	O.3	1	LIG1	-0.409383
	20	C	4.372384	-0.515836	0.235373	C.2	1	LIG1	0.424692
	21	C	5.174896	-1.608084	0.600079	C.2	1	LIG1	-0.288525
	22	C	6.549238	-1.433519	0.653719	C.2	1	LIG1	-0.080247
	23	C	7.144456	-0.193484	0.358966	C.2	1	LIG1	-0.098956
	24	C	6.305014	0.881091	0.006077	C.2	1	LIG1	0.396256
	25	C	4.921239	0.727319	-0.059306	C.2	1	LIG1	-0.378329
	26	C	8.562001	0.057715	0.395334	C.2	1	LIG1	0.021717
	27	C	9.054772	1.282605	0.101434	C.2	1	LIG1	-0.365139
	28	C	8.181653	2.394354	-0.261058	C.2	1	LIG1	0.759184
	29	O	6.809863	2.112629	-0.286848	O.3	1	LIG1	-0.395532
	30	O	8.529014	3.517196	-0.535673	O.2	1	LIG1	-0.516686
	31	H	-8.744420	1.917745	-1.184308	H	1	LIG1	0.086381
	32	H	-8.640316	2.360351	0.524829	H	1	LIG1	0.067437
	33	H	-8.103057	-0.044064	1.107995	H	1	LIG1	-0.040764
	34	H	-8.223338	-0.472995	-0.590789	H	1	LIG1	-0.003771
	35	H	-6.314127	1.102149	-1.111035	H	1	LIG1	0.007680
	36	H	-6.190532	1.515017	0.585973	H	1	LIG1	-0.003173
	37	H	-5.668349	-0.913035	1.127417	H	1	LIG1	0.100071
	38	H	-5.776064	-1.309676	-0.570877	H	1	LIG1	0.102253
	39	H	-2.015797	-3.150231	-0.985970	H	1	LIG1	0.138127
	40	H	0.480115	-3.348462	-1.145670	H	1	LIG1	0.106043
	41	H	0.884345	0.441441	0.828822	H	1	LIG1	0.093264
	42	H	-1.578126	0.642964	0.982814	H	1	LIG1	0.168222
	43	H	4.726998	-2.566916	0.820941	H	1	LIG1	0.174072
	44	H	7.186387	-2.269221	0.930557	H	1	LIG1	0.118994
	45	H	4.289261	1.564091	-0.332872	H	1	LIG1	0.193510
	46	H	9.230061	-0.757582	0.663823	H	1	LIG1	0.106603
	47	H	10.114791	1.507277	0.118588	H	1	LIG1	0.151997
	48	H	-11.70706	0.62204	1.23355	H	1	LIG1	0.408510
@<TRIPOS>BOND
1	1	2	1	# 0.94483
2	1	48	1	# 0.988525
3	2	3	2	# 1.88588
4	2	4	1	# 0.961465
5	4	5	1	# 0.98036
6	4	31	1	# 0.982835
7	4	32	1	# 0.979905
8	5	6	1	# 0.984475
9	5	33	1	# 0.98319
10	5	34	1	# 0.983455
11	6	7	1	# 0.984925
12	6	35	1	# 0.98326
13	6	36	1	# 0.9834
14	7	8	1	# 0.960525
15	7	37	1	# 0.97621
16	7	38	1	# 0.97725
17	8	9	2	# 1.88336
18	8	10	1	# 0.93534
19	10	11	1	# 0.97628
20	11	12	1	# 0.977555
21	11	16	2	# 1.61136
22	12	13	2	# 1.66901
23	12	39	1	# 0.983695
24	13	14	1	# 0.976135
25	13	40	1	# 0.983235
26	14	15	2	# 1.60643
27	14	17	1	# 0.95606
28	15	16	1	# 0.97995
29	15	41	1	# 0.983735
30	16	42	1	# 0.983265
31	17	18	2	# 1.85612
32	17	19	1	# 0.93541
33	19	20	1	# 0.97723
34	20	21	1	# 0.97612
35	20	25	2	# 1.63566
36	21	22	2	# 1.68217
37	21	43	1	# 0.983235
38	22	23	1	# 0.97574
39	22	44	1	# 0.983955
40	23	24	2	# 1.54312
41	23	26	1	# 0.97573
42	24	25	1	# 0.97676
43	24	29	1	# 0.97925
44	25	45	1	# 0.9825
45	26	27	2	# 1.82889
46	26	46	1	# 0.98348
47	27	28	1	# 0.963895
48	27	47	1	# 0.982205
49	28	29	1	# 0.929625
50	28	30	2	# 1.84013
