@<TRIPOS>MOLECULE
*****
 98 97 0 0 0
SMALL
GASTEIGER
Energy = 0

@<TRIPOS>ATOM
      1 C1         -3.0129   -1.8060    0.0140 C.3     1  LIG1       -0.0531
      2 C2         -1.8482   -0.8144   -0.0022 C.3     1  LIG1       -0.0531
      3 C3         -0.5015   -1.5394    0.0125 C.3     1  LIG1       -0.0531
      4 H4         -1.9182   -0.1510    0.8682 H       1  LIG1        0.0266
      5 H5         -1.9157   -0.1830   -0.8966 H       1  LIG1        0.0266
      6 C6          0.6649   -0.5499   -0.0008 C.3     1  LIG1       -0.0531
      7 H7         -0.4315   -2.2014   -0.8592 H       1  LIG1        0.0266
      8 H8         -0.4353   -2.1728    0.9055 H       1  LIG1        0.0266
      9 C9          2.0100   -1.2780    0.0103 C.3     1  LIG1       -0.0531
     10 H10         0.5968    0.1101    0.8726 H       1  LIG1        0.0266
     11 H11         0.5982    0.0852   -0.8924 H       1  LIG1        0.0266
     12 C12         3.1792   -0.2918    0.0014 C.3     1  LIG1       -0.0531
     13 H13         2.0781   -1.9361   -0.8646 H       1  LIG1        0.0266
     14 H14         2.0749   -1.9159    0.9002 H       1  LIG1        0.0266
     15 C15         4.5219   -1.0243    0.0077 C.3     1  LIG1       -0.0531
     16 H16         3.1137    0.3638    0.8783 H       1  LIG1        0.0266
     17 H17         3.1139    0.3482   -0.8868 H       1  LIG1        0.0266
     18 C18         5.6947   -0.0424    0.0042 C.3     1  LIG1       -0.0531
     19 H19         4.5873   -1.6775   -0.8711 H       1  LIG1        0.0266
     20 H20         4.5849   -1.6677    0.8937 H       1  LIG1        0.0266
     21 C21        -4.3606   -1.0828   -0.0031 C.3     1  LIG1       -0.0531
     22 H22        -2.9458   -2.4362    0.9094 H       1  LIG1        0.0266
     23 H23        -2.9417   -2.4707   -0.8552 H       1  LIG1        0.0266
     24 C24        -5.5244   -2.0753    0.0153 C.3     1  LIG1       -0.0533
     25 H25        -4.4284   -0.4539   -0.8994 H       1  LIG1        0.0266
     26 H26        -4.4316   -0.4170    0.8654 H       1  LIG1        0.0266
     27 C27         7.0345   -0.7804    0.0049 C.3     1  LIG1       -0.0531
     28 H28         5.6323    0.6078    0.8853 H       1  LIG1        0.0266
     29 H29         5.6313    0.6034   -0.8800 H       1  LIG1        0.0266
     30 C30         8.2114    0.1966    0.0078 C.3     1  LIG1       -0.0531
     31 H31         7.0970   -1.4278   -0.8783 H       1  LIG1        0.0266
     32 H32         7.0952   -1.4301    0.8866 H       1  LIG1        0.0266
     33 C33         9.5481   -0.5470    0.0026 C.3     1  LIG1       -0.0531
     34 H34         8.1521    0.8408    0.8934 H       1  LIG1        0.0266
     35 H35         8.1503    0.8489   -0.8718 H       1  LIG1        0.0266
     36 C36        10.7289    0.4252    0.0123 C.3     1  LIG1       -0.0531
     37 H37         9.6077   -1.1881   -0.8854 H       1  LIG1        0.0266
     38 H38         9.6064   -1.2034    0.8794 H       1  LIG1        0.0266
     39 C39        -6.8714   -1.3533   -0.0033 C.3     1  LIG1       -0.0559
     40 H40        -5.4570   -2.7037    0.9120 H       1  LIG1        0.0265
     41 H41        -5.4528   -2.7420   -0.8524 H       1  LIG1        0.0265
     42 C42        -8.0308   -2.3367    0.0161 C.3     1  LIG1       -0.0653
     43 H43        -6.9460   -0.7274   -0.9004 H       1  LIG1        0.0263
     44 H44        -6.9497   -0.6879    0.8641 H       1  LIG1        0.0263
     45 H45        -8.0000   -2.9970   -0.8563 H       1  LIG1        0.0230
     46 H46        -8.9841   -1.7991    0.0018 H       1  LIG1        0.0230
     47 H47        -8.0040   -2.9568    0.9179 H       1  LIG1        0.0230
     48 C48        12.0629   -0.3233    0.0013 C.3     1  LIG1       -0.0531
     49 H49        10.6723    1.0631    0.9028 H       1  LIG1        0.0265
     50 H50        10.6700    1.0843   -0.8623 H       1  LIG1        0.0265
     51 C51        13.2467    0.6451    0.0178 C.3     1  LIG1       -0.0531
     52 H52        12.1200   -0.9579   -0.8915 H       1  LIG1        0.0265
     53 H53        12.1192   -0.9863    0.8732 H       1  LIG1        0.0265
     54 C54        14.5789   -0.1066    0.0010 C.3     1  LIG1       -0.0531
     55 H55        13.1921    1.2766    0.9129 H       1  LIG1        0.0265
     56 H56        13.1895    1.3108   -0.8519 H       1  LIG1        0.0265
     57 C57        15.7644    0.8596    0.0238 C.3     1  LIG1       -0.0531
     58 H58        14.6343   -0.7350   -0.8963 H       1  LIG1        0.0265
     59 H59        14.6342   -0.7758    0.8682 H       1  LIG1        0.0265
     60 C60        17.0958    0.1068    0.0014 C.3     1  LIG1       -0.0531
     61 H61        15.7109    1.4851    0.9232 H       1  LIG1        0.0265
     62 H62        15.7077    1.5314   -0.8413 H       1  LIG1        0.0265
     63 C63        18.2814    1.0729    0.0290 C.3     1  LIG1       -0.0531
     64 H64        17.1503   -0.5160   -0.8999 H       1  LIG1        0.0265
     65 H65        17.1515   -0.5676    0.8644 H       1  LIG1        0.0265
     66 C66        19.6134    0.3213    0.0012 C.3     1  LIG1       -0.0531
     67 H67        18.2284    1.6931    0.9322 H       1  LIG1        0.0265
     68 H68        18.2238    1.7499   -0.8319 H       1  LIG1        0.0265
     69 C69        20.7975    1.2889    0.0322 C.3     1  LIG1       -0.0531
     70 H70        19.6674   -0.2968   -0.9034 H       1  LIG1        0.0265
     71 H71        19.6708   -0.3574    0.8607 H       1  LIG1        0.0265
     72 C72        22.1310    0.5402   -0.0009 C.3     1  LIG1       -0.0531
     73 H73        20.7446    1.9047    0.9384 H       1  LIG1        0.0265
     74 H74        20.7378    1.9701   -0.8253 H       1  LIG1        0.0265
     75 C75        23.3130    1.5105    0.0321 C.3     1  LIG1       -0.0531
     76 H76        22.1849   -0.0741   -0.9079 H       1  LIG1        0.0265
     77 H77        22.1912   -0.1418    0.8559 H       1  LIG1        0.0265
     78 C78        24.6481    0.7651   -0.0056 C.3     1  LIG1       -0.0531
     79 H79        23.2598    2.1228    0.9405 H       1  LIG1        0.0265
     80 H80        23.2503    2.1946   -0.8229 H       1  LIG1        0.0265
     81 C81        25.8279    1.7382    0.0282 C.3     1  LIG1       -0.0531
     82 H82        24.7020    0.1536   -0.9145 H       1  LIG1        0.0265
     83 H83        24.7115    0.0808    0.8491 H       1  LIG1        0.0265
     84 C84        27.1645    0.9957   -0.0129 C.3     1  LIG1       -0.0531
     85 H85        25.7746    2.3483    0.9381 H       1  LIG1        0.0265
     86 H86        25.7627    2.4241   -0.8252 H       1  LIG1        0.0265
     87 C87        28.3427    1.9706    0.0211 C.3     1  LIG1       -0.0533
     88 H88        27.2183    0.3861   -0.9231 H       1  LIG1        0.0265
     89 H89        27.2303    0.3098    0.8403 H       1  LIG1        0.0265
     90 C90        29.6792    1.2303   -0.0217 C.3     1  LIG1       -0.0559
     91 H91        28.2893    2.5798    0.9318 H       1  LIG1        0.0265
     92 H92        28.2760    2.6576   -0.8312 H       1  LIG1        0.0265
     93 C93        30.8524    2.1967    0.0121 C.3     1  LIG1       -0.0653
     94 H94        29.7397    0.6232   -0.9326 H       1  LIG1        0.0263
     95 H95        29.7530    0.5450    0.8306 H       1  LIG1        0.0263
     96 H96        30.8259    2.8763   -0.8456 H       1  LIG1        0.0230
     97 H97        31.7979    1.6463   -0.0197 H       1  LIG1        0.0230
     98 H98        30.8396    2.7973    0.9273 H       1  LIG1        0.0230
@<TRIPOS>BOND
     1     1     2    1
     2     2     3    1
     3     2     4    1
     4     2     5    1
     5     3     6    1
     6     3     7    1
     7     3     8    1
     8     6     9    1
     9     6    10    1
    10     6    11    1
    11     9    12    1
    12     9    13    1
    13     9    14    1
    14    12    15    1
    15    12    16    1
    16    12    17    1
    17    15    18    1
    18    15    19    1
    19    15    20    1
    20     1    21    1
    21     1    22    1
    22     1    23    1
    23    21    24    1
    24    21    25    1
    25    21    26    1
    26    18    27    1
    27    18    28    1
    28    18    29    1
    29    27    30    1
    30    27    31    1
    31    27    32    1
    32    30    33    1
    33    30    34    1
    34    30    35    1
    35    33    36    1
    36    33    37    1
    37    33    38    1
    38    24    39    1
    39    24    40    1
    40    24    41    1
    41    39    42    1
    42    39    43    1
    43    39    44    1
    44    42    45    1
    45    42    46    1
    46    42    47    1
    47    36    48    1
    48    36    49    1
    49    36    50    1
    50    48    51    1
    51    48    52    1
    52    48    53    1
    53    51    54    1
    54    51    55    1
    55    51    56    1
    56    54    57    1
    57    54    58    1
    58    54    59    1
    59    57    60    1
    60    57    61    1
    61    57    62    1
    62    60    63    1
    63    60    64    1
    64    60    65    1
    65    63    66    1
    66    63    67    1
    67    63    68    1
    68    66    69    1
    69    66    70    1
    70    66    71    1
    71    69    72    1
    72    69    73    1
    73    69    74    1
    74    72    75    1
    75    72    76    1
    76    72    77    1
    77    75    78    1
    78    75    79    1
    79    75    80    1
    80    78    81    1
    81    78    82    1
    82    78    83    1
    83    81    84    1
    84    81    85    1
    85    81    86    1
    86    84    87    1
    87    84    88    1
    88    84    89    1
    89    87    90    1
    90    87    91    1
    91    87    92    1
    92    90    93    1
    93    90    94    1
    94    90    95    1
    95    93    96    1
    96    93    97    1
    97    93    98    1
