@<TRIPOS>MOLECULE
*****
 50 49 0 0 0
SMALL
GASTEIGER
Energy = 0

@<TRIPOS>ATOM
      1 C1         -3.2394   -1.8718    0.0201 C.3     1  LIG1       -0.0531
      2 C2         -2.0719   -0.8611   -0.0073 C.3     1  LIG1       -0.0531
      3 C3         -0.7160   -1.5998    0.0212 C.3     1  LIG1       -0.0531
      4 H4         -2.1435   -0.1993    0.8689 H       1  LIG1        0.0265
      5 H5         -2.1370   -0.2559   -0.9239 H       1  LIG1        0.0265
      6 C6          0.4453   -0.5821   -0.0086 C.3     1  LIG1       -0.0531
      7 H7         -0.6435   -2.2626   -0.8543 H       1  LIG1        0.0265
      8 H8         -0.6492   -2.2036    0.9388 H       1  LIG1        0.0265
      9 C9          1.8038   -1.3159    0.0202 C.3     1  LIG1       -0.0531
     10 H10         0.3711    0.0806    0.8666 H       1  LIG1        0.0264
     11 H11         0.3771    0.0212   -0.9262 H       1  LIG1        0.0264
     12 C12         2.9645   -0.2973   -0.0079 C.3     1  LIG1       -0.0531
     13 H13         1.8785   -1.9777   -0.8558 H       1  LIG1        0.0265
     14 H14         1.8718   -1.9202    0.9372 H       1  LIG1        0.0265
     15 C15         4.3212   -1.0347    0.0159 C.3     1  LIG1       -0.0531
     16 H16         2.8924    0.3623    0.8699 H       1  LIG1        0.0265
     17 H17         2.8958    0.3094   -0.9233 H       1  LIG1        0.0265
     18 C18         5.4868   -0.0217   -0.0056 C.3     1  LIG1       -0.0531
     19 H19         4.3934   -1.6910   -0.8643 H       1  LIG1        0.0265
     20 H20         4.3875   -1.6452    0.9289 H       1  LIG1        0.0265
     21 C21        -4.5893   -1.1221   -0.0050 C.3     1  LIG1       -0.0531
     22 H22        -3.1761   -2.4788    0.9357 H       1  LIG1        0.0265
     23 H23        -3.1717   -2.5320   -0.8576 H       1  LIG1        0.0265
     24 C24        -5.7641   -2.1240    0.0179 C.3     1  LIG1       -0.0533
     25 H25        -4.6500   -0.5127   -0.9191 H       1  LIG1        0.0265
     26 H26        -4.6561   -0.4636    0.8740 H       1  LIG1        0.0265
     27 C27         6.8384   -0.7685    0.0093 C.3     1  LIG1       -0.0528
     28 H28         5.4200    0.6305    0.8782 H       1  LIG1        0.0264
     29 H29         5.4201    0.5934   -0.9156 H       1  LIG1        0.0264
     30 C30         8.0107    0.2365   -0.0032 C.3     1  LIG1       -0.0533
     31 H31         6.9056   -1.4162   -0.8777 H       1  LIG1        0.0265
     32 H32         6.9019   -1.3888    0.9159 H       1  LIG1        0.0265
     33 C33         9.3573   -0.5192    0.0036 C.3     1  LIG1       -0.0559
     34 H34         7.9492    0.8804    0.8870 H       1  LIG1        0.0265
     35 H35         7.9478    0.8610   -0.9070 H       1  LIG1        0.0265
     36 C36        10.5342    0.4783   -0.0021 C.3     1  LIG1       -0.0652
     37 H37         9.4247   -1.1594   -0.8890 H       1  LIG1        0.0265
     38 H38         9.4232   -1.1472    0.9048 H       1  LIG1        0.0265
     39 H39        10.4865    1.1078   -0.9030 H       1  LIG1        0.0230
     40 H40        11.4837   -0.0776    0.0006 H       1  LIG1        0.0230
     41 H41        10.4869    1.1172    0.8923 H       1  LIG1        0.0230
     42 C42        -7.1086   -1.3647   -0.0044 C.3     1  LIG1       -0.0560
     43 H43        -5.7057   -2.7354    0.9309 H       1  LIG1        0.0265
     44 H44        -5.7015   -2.7809   -0.8627 H       1  LIG1        0.0265
     45 C45        -8.2884   -2.3586    0.0153 C.3     1  LIG1       -0.0652
     46 H46        -7.1706   -0.7518   -0.9162 H       1  LIG1        0.0265
     47 H47        -7.1762   -0.7094    0.8771 H       1  LIG1        0.0265
     48 H48        -8.2403   -3.0135   -0.8675 H       1  LIG1        0.0230
     49 H49        -9.2363   -1.8002   -0.0003 H       1  LIG1        0.0230
     50 H50        -8.2452   -2.9722    0.9273 H       1  LIG1        0.0230
@<TRIPOS>BOND
     1     1     2    1
     2     2     3    1
     3     2     4    1
     4     2     5    1
     5     3     6    1
     6     3     7    1
     7     3     8    1
     8     6     9    1
     9     6    10    1
    10     6    11    1
    11     9    12    1
    12     9    13    1
    13     9    14    1
    14    12    15    1
    15    12    16    1
    16    12    17    1
    17    15    18    1
    18    15    19    1
    19    15    20    1
    20     1    21    1
    21     1    22    1
    22     1    23    1
    23    21    24    1
    24    21    25    1
    25    21    26    1
    26    18    27    1
    27    18    28    1
    28    18    29    1
    29    27    30    1
    30    27    31    1
    31    27    32    1
    32    30    33    1
    33    30    34    1
    34    30    35    1
    35    33    36    1
    36    33    37    1
    37    33    38    1
    38    36    39    1
    39    36    40    1
    40    36    41    1
    41    24    42    1
    42    24    43    1
    43    24    44    1
    44    42    45    1
    45    42    46    1
    46    42    47    1
    47    45    48    1
    48    45    49    1
    49    45    50    1
