@<TRIPOS>MOLECULE
*****
 46 48 0 0 0
SMALL
USER_CHARGES

@<TRIPOS>ATOM
      1 C          -2.2255    3.2909   -2.1244 C.ar    1  LIG1       -0.059143
      2 C          -1.0231    3.9142   -2.4564 C.ar    1  LIG1       -0.113359
      3 C           0.1592    3.5021   -1.8404 C.ar    1  LIG1       -0.027849
      4 C           0.1434    2.4693   -0.9039 C.ar    1  LIG1       -0.224813
      5 C          -1.0618    1.8339   -0.5770 C.ar    1  LIG1        0.200966
      6 C          -2.2497    2.2583   -1.1866 C.ar    1  LIG1       -0.134439
      7 C          -1.1097    0.7087    0.4673 C.3     1  LIG1        0.005859
      8 C          -0.1468   -0.4583    0.1746 C.3     1  LIG1        0.152947
      9 C          -0.9332   -1.5501   -0.1165 C.2     1  LIG1       -0.174530
     10 C          -2.3282   -1.1954    0.0294 C.2     1  LIG1        0.427011
     11 O          -2.4133    0.0908    0.4248 O.2     1  LIG1       -0.322641
     12 C          -3.4893   -1.9049   -0.1568 C.3     1  LIG1       -0.341438
     13 C           1.3072   -0.4265    0.1096 C.ar    1  LIG1        0.086139
     14 C           2.1186    0.2133    1.0735 C.ar    1  LIG1       -0.137579
     15 C           3.4994    0.1616    1.0114 C.ar    1  LIG1       -0.231176
     16 C           4.1672   -0.5205   -0.0389 C.ar    1  LIG1        0.356042
     17 C           3.3543   -1.1503   -1.0167 C.ar    1  LIG1       -0.148995
     18 C           1.9762   -1.1114   -0.9313 C.ar    1  LIG1       -0.178853
     19 N           5.5352   -0.5664   -0.1077 N.pl3   1  LIG1       -0.440882
     20 C           6.3436    0.0848    0.9136 C.3     1  LIG1        0.076692
     21 C           6.1897   -1.3240   -1.1663 C.3     1  LIG1        0.019456
     22 C          -0.4598   -2.8553   -0.4279 C.1     1  LIG1        0.363730
     23 N          -0.0418   -3.9131   -0.6722 N.1     1  LIG1       -0.391718
     24 C          -1.0489    1.2853    1.9100 C.3     1  LIG1        0.528275
     25 F          -0.0004    2.1219    2.0691 F       1  LIG1       -0.145954
     26 F          -0.9280    0.2980    2.8160 F       1  LIG1       -0.185621
     27 F          -2.1601    1.9771    2.1787 F       1  LIG1       -0.158336
     28 C          -4.7450   -1.2581    0.0559 C.1     1  LIG1        0.452318
     29 N          -5.7687   -0.7278    0.2172 N.1     1  LIG1       -0.441274
     30 C          -3.5118   -3.2664   -0.5789 C.1     1  LIG1        0.420318
     31 N          -3.5877   -4.3744   -0.9278 N.1     1  LIG1       -0.417976
     32 H          -3.1538    3.6073   -2.5914 H       1  LIG1        0.104225
     33 H          -1.0070    4.7176   -3.1876 H       1  LIG1        0.101449
     34 H           1.1013    3.9834   -2.0875 H       1  LIG1        0.099473
     35 H           1.0716    2.1642   -0.4365 H       1  LIG1        0.097838
     36 H          -3.1901    1.7866   -0.9284 H       1  LIG1        0.090661
     37 H           1.6690    0.7278    1.9114 H       1  LIG1        0.101873
     38 H           4.0669    0.6456    1.7965 H       1  LIG1        0.150509
     39 H           3.8049   -1.6719   -1.8518 H       1  LIG1        0.124149
     40 H           1.3998   -1.5973   -1.7106 H       1  LIG1        0.085517
     41 H           6.1748   -0.3502    1.9083 H       1  LIG1        0.026702
     42 H           7.3985   -0.0370    0.6655 H       1  LIG1        0.054899
     43 H           6.1314    1.1602    0.9683 H       1  LIG1        0.010333
     44 H           5.8988   -2.3824   -1.1461 H       1  LIG1        0.044903
     45 H           5.9507   -0.9206   -2.1591 H       1  LIG1        0.024104
     46 H           7.2702   -1.2671   -1.0308 H       1  LIG1        0.070187
@<TRIPOS>BOND
     1    33     2    1
     2    32     1    1
     3     2     1   ar
     4     2     3   ar
     5    45    21    1
     6     1     6   ar
     7    34     3    1
     8    39    17    1
     9     3     4   ar
    10    40    18    1
    11     6    36    1
    12     6     5   ar
    13    21    44    1
    14    21    46    1
    15    21    19    1
    16    17    18   ar
    17    17    16   ar
    18    18    13   ar
    19    31    30    3
    20     4     5   ar
    21     4    35    1
    22    23    22    3
    23    30    12    1
    24     5     7    1
    25    22     9    1
    26    12    10    1
    27    12    28    1
    28     9    10    2
    29     9     8    1
    30    19    16    1
    31    19    20    1
    32    16    15   ar
    33    10    11    1
    34    28    29    3
    35    13     8    1
    36    13    14   ar
    37     8     7    1
    38    11     7    1
    39     7    24    1
    40    42    20    1
    41    20    43    1
    42    20    41    1
    43    15    14   ar
    44    15    38    1
    45    14    37    1
    46    24    25    1
    47    24    27    1
    48    24    26    1
