@<TRIPOS>MOLECULE
*****
 62 65 0 0 0
SMALL
USER_CHARGES

@<TRIPOS>ATOM
      1 C           2.2283   -0.8799   -0.2244 C.ar    1  LIG1       -0.165242
      2 C           3.4630   -0.3506    0.1934 C.ar    1  LIG1        0.224171
      3 C           3.4699    0.9079    0.8288 C.ar    1  LIG1       -0.118464
      4 C           2.2864    1.6009    1.0435 C.ar    1  LIG1       -0.177847
      5 C           1.0554    1.0622    0.6333 C.ar    1  LIG1        0.097927
      6 C           1.0443   -0.1809   -0.0097 C.ar    1  LIG1       -0.118276
      7 C          -0.2138    1.8807    0.8871 C.3     1  LIG1        0.080987
      8 C          -1.4342    1.5236    0.0363 C.3     1  LIG1        0.212577
      9 C          -1.6650    2.6110   -0.7930 C.2     1  LIG1       -0.292843
     10 C          -0.7290    3.6616   -0.4692 C.2     1  LIG1        0.458593
     11 O           0.0708    3.2564    0.5414 O.2     1  LIG1       -0.331054
     12 C          -0.5402    4.9225   -0.9881 C.3     1  LIG1       -0.412879
     13 C          -2.1286    0.2908    0.2050 C.2     1  LIG1       -0.206556
     14 C          -3.1955   -0.1460   -0.5403 C.2     1  LIG1       -0.106975
     15 C          -3.9269   -1.3703   -0.3664 C.ar    1  LIG1        0.110673
     16 C          -5.0027   -1.6520   -1.2409 C.ar    1  LIG1       -0.115828
     17 C          -5.7566   -2.8040   -1.1344 C.ar    1  LIG1       -0.228886
     18 C          -5.4761   -3.7641   -0.1264 C.ar    1  LIG1        0.292769
     19 C          -4.3938   -3.4881    0.7569 C.ar    1  LIG1       -0.227621
     20 C          -3.6517   -2.3323    0.6354 C.ar    1  LIG1       -0.102834
     21 N          -6.2162   -4.9107   -0.0059 N.pl3   1  LIG1       -0.212385
     22 C          -7.3206   -5.1693   -0.9207 C.3     1  LIG1        0.005481
     23 C          -5.9136   -5.8766    1.0423 C.3     1  LIG1       -0.007134
     24 C           4.6747   -1.0628   -0.0291 C.1     1  LIG1       -0.151678
     25 C           5.7110   -1.6705   -0.2204 C.1     1  LIG1       -0.131654
     26 C           6.9252   -2.3811   -0.4452 C.ar    1  LIG1        0.240211
     27 C           8.1596   -1.8349   -0.0396 C.ar    1  LIG1       -0.174027
     28 C           9.3434   -2.5326   -0.2619 C.ar    1  LIG1       -0.064291
     29 C           9.3186   -3.7809   -0.8891 C.ar    1  LIG1       -0.090190
     30 C           8.1000   -4.3309   -1.2952 C.ar    1  LIG1       -0.070237
     31 C           6.9110   -3.6407   -1.0774 C.ar    1  LIG1       -0.180075
     32 C          -2.6892    2.7046   -1.7693 C.1     1  LIG1        0.412724
     33 N          -3.5490    2.7121   -2.5551 N.1     1  LIG1       -0.432044
     34 C          -0.5749    1.9231    2.3973 C.3     1  LIG1        0.505391
     35 F          -0.7398    0.6704    2.8764 F       1  LIG1       -0.198308
     36 F           0.3881    2.5136    3.1186 F       1  LIG1       -0.141262
     37 F          -1.7175    2.6001    2.5983 F       1  LIG1       -0.175731
     38 C          -1.3240    5.4438   -2.0575 C.1     1  LIG1        0.455794
     39 N          -1.9361    5.9109   -2.9312 N.1     1  LIG1       -0.459879
     40 C           0.4830    5.7588   -0.4486 C.1     1  LIG1        0.467160
     41 N           1.3179    6.4446   -0.0148 N.1     1  LIG1       -0.472753
     42 H           2.2053   -1.8410   -0.7280 H       1  LIG1        0.122781
     43 H           4.4143    1.3379    1.1463 H       1  LIG1        0.113210
     44 H           2.3190    2.5742    1.5186 H       1  LIG1        0.153898
     45 H           0.1145   -0.6117   -0.3622 H       1  LIG1        0.070626
     46 H          -1.7736   -0.3316    1.0188 H       1  LIG1        0.121047
     47 H          -3.5457    0.4782   -1.3567 H       1  LIG1        0.133796
     48 H          -5.2447   -0.9352   -2.0218 H       1  LIG1        0.116924
     49 H          -6.5696   -2.9641   -1.8313 H       1  LIG1        0.135773
     50 H          -4.1419   -4.1897    1.5423 H       1  LIG1        0.127504
     51 H          -2.8382   -2.1677    1.3357 H       1  LIG1        0.118770
     52 H          -6.9773   -5.2241   -1.9620 H       1  LIG1        0.031460
     53 H          -8.0921   -4.3912   -0.8530 H       1  LIG1        0.033338
     54 H          -7.7800   -6.1247   -0.6657 H       1  LIG1        0.071067
     55 H          -4.8963   -6.2772    0.9421 H       1  LIG1        0.036550
     56 H          -6.6128   -6.7104    0.9720 H       1  LIG1        0.072355
     57 H          -6.0124   -5.4333    2.0419 H       1  LIG1        0.037816
     58 H           8.1745   -0.8645    0.4466 H       1  LIG1        0.114758
     59 H          10.2889   -2.1010    0.0548 H       1  LIG1        0.091967
     60 H          10.2446   -4.3224   -1.0613 H       1  LIG1        0.090828
     61 H           8.0765   -5.3011   -1.7839 H       1  LIG1        0.094155
     62 H           5.9621   -4.0640   -1.3921 H       1  LIG1        0.113871
@<TRIPOS>BOND
     1    39    38    3
     2    33    32    3
     3    38    12    1
     4    48    16    1
     5    52    22    1
     6    49    17    1
     7    61    30    1
     8    32     9    1
     9    62    31    1
    10    47    14    1
    11    30    31   ar
    12    30    29   ar
    13    16    17   ar
    14    16    15   ar
    15    17    18   ar
    16    31    26   ar
    17    60    29    1
    18    12    10    1
    19    12    40    1
    20    22    53    1
    21    22    54    1
    22    22    21    1
    23    29    28   ar
    24     9    10    2
    25     9     8    1
    26    42     1    1
    27    14    15    1
    28    14    13    2
    29    10    11    1
    30    40    41    3
    31    26    25    1
    32    26    27   ar
    33    15    20   ar
    34    45     6    1
    35    28    27   ar
    36    28    59    1
    37     1     6   ar
    38     1     2   ar
    39    25    24    3
    40    18    21    1
    41    18    19   ar
    42    27    58    1
    43    24     2    1
    44     6     5   ar
    45    21    23    1
    46     8    13    1
    47     8     7    1
    48     2     3   ar
    49    13    46    1
    50    11     7    1
    51     5     7    1
    52     5     4   ar
    53    20    19   ar
    54    20    51    1
    55    19    50    1
    56     3     4   ar
    57     3    43    1
    58     7    34    1
    59    55    23    1
    60    56    23    1
    61    23    57    1
    62     4    44    1
    63    34    37    1
    64    34    35    1
    65    34    36    1
