@<TRIPOS>MOLECULE
*****
 50 52 0 0 0
SMALL
USER_CHARGES

@<TRIPOS>ATOM
      1 C           1.3317   -3.2530   -2.3681 C.ar    1  LIG1       -0.070122
      2 C           2.5340   -3.9573   -2.3456 C.ar    1  LIG1       -0.078645
      3 C           3.5292   -3.5935   -1.4362 C.ar    1  LIG1       -0.061160
      4 C           3.3206   -2.5392   -0.5505 C.ar    1  LIG1       -0.136043
      5 C           2.1073   -1.8330   -0.5628 C.ar    1  LIG1        0.035343
      6 C           1.1184   -2.1935   -1.4839 C.ar    1  LIG1       -0.117189
      7 C           1.9373   -0.6763    0.4293 C.3     1  LIG1        0.177845
      8 C           0.8684    0.3631    0.0858 C.3     1  LIG1        0.159895
      9 C           1.5443    1.5394   -0.2022 C.2     1  LIG1       -0.192915
     10 C           2.9569    1.3406    0.0198 C.2     1  LIG1        0.337420
     11 O           3.1720    0.0769    0.4456 O.2     1  LIG1       -0.312793
     12 C           4.0406    2.1779   -0.1195 C.3     1  LIG1       -0.297955
     13 C          -0.5215    0.0533    0.1377 C.2     1  LIG1       -0.184884
     14 C          -1.5516    0.8922   -0.2082 C.2     1  LIG1       -0.040639
     15 C          -2.9582    0.6095   -0.1313 C.ar    1  LIG1        0.117426
     16 C          -3.8775    1.6037   -0.5411 C.ar    1  LIG1       -0.201082
     17 C          -5.2438    1.4096   -0.4912 C.ar    1  LIG1       -0.169788
     18 C          -5.7861    0.1852   -0.0186 C.ar    1  LIG1        0.407311
     19 C          -4.8668   -0.8206    0.3947 C.ar    1  LIG1       -0.238898
     20 C          -3.5053   -0.6091    0.3376 C.ar    1  LIG1       -0.131064
     21 N          -7.1391   -0.0224    0.0391 N.pl3   1  LIG1       -0.458329
     22 C          -8.0600    1.0226   -0.3888 C.3     1  LIG1       -0.013701
     23 C          -7.6704   -1.2860    0.5328 C.3     1  LIG1        0.052659
     24 C           0.9458    2.7625   -0.5984 C.1     1  LIG1        0.414051
     25 N           0.3898    3.7329   -0.9239 N.1     1  LIG1       -0.414655
     26 C           3.9243    3.5251   -0.5679 C.1     1  LIG1        0.403271
     27 N           3.8792    4.6298   -0.9336 N.1     1  LIG1       -0.420760
     28 C           1.7737   -1.1948    1.8839 C.3     1  LIG1        0.490685
     29 F           0.7178   -2.0344    1.9665 F       1  LIG1       -0.164541
     30 F           2.8605   -1.8622    2.2952 F       1  LIG1       -0.157852
     31 F           1.5649   -0.1778    2.7363 F       1  LIG1       -0.173600
     32 C           5.3476    1.6928    0.1869 C.1     1  LIG1        0.457599
     33 N           6.4167    1.3020    0.4320 N.1     1  LIG1       -0.450744
     34 H           0.5553   -3.5177   -3.0805 H       1  LIG1        0.095899
     35 H           2.6996   -4.7788   -3.0371 H       1  LIG1        0.094098
     36 H           4.4752   -4.1270   -1.4179 H       1  LIG1        0.098423
     37 H           4.1052   -2.2532    0.1401 H       1  LIG1        0.121675
     38 H           0.1837   -1.6471   -1.5319 H       1  LIG1        0.063110
     39 H          -0.7602   -0.9369    0.5089 H       1  LIG1        0.096292
     40 H          -1.3087    1.8812   -0.5849 H       1  LIG1        0.078272
     41 H          -3.4940    2.5536   -0.9055 H       1  LIG1        0.143059
     42 H          -5.8976    2.2086   -0.8174 H       1  LIG1        0.122576
     43 H          -5.2311   -1.7711    0.7644 H       1  LIG1        0.127344
     44 H          -2.8471   -1.4073    0.6677 H       1  LIG1        0.132351
     45 H          -7.9138    1.2816   -1.4456 H       1  LIG1        0.040782
     46 H          -7.9411    1.9357    0.2091 H       1  LIG1        0.037743
     47 H          -9.0841    0.6691   -0.2658 H       1  LIG1        0.077942
     48 H          -7.3402   -2.1325   -0.0835 H       1  LIG1        0.036453
     49 H          -8.7598   -1.2515    0.5024 H       1  LIG1        0.060024
     50 H          -7.3653   -1.4756    1.5702 H       1  LIG1        0.007813
@<TRIPOS>BOND
     1    34     1    1
     2    35     2    1
     3     1     2   ar
     4     1     6   ar
     5     2     3   ar
     6    38     6    1
     7     6     5   ar
     8    45    22    1
     9     3    36    1
    10     3     4   ar
    11    27    26    3
    12    25    24    3
    13    41    16    1
    14    42    17    1
    15    24     9    1
    16    40    14    1
    17    26    12    1
    18     5     4   ar
    19     5     7    1
    20     4    37    1
    21    16    17   ar
    22    16    15   ar
    23    17    18   ar
    24    22    47    1
    25    22    21    1
    26    22    46    1
    27    14    15    1
    28    14    13    2
    29     9    10    2
    30     9     8    1
    31    15    20   ar
    32    12    10    1
    33    12    32    1
    34    48    23    1
    35    18    21    1
    36    18    19   ar
    37    10    11    1
    38    21    23    1
    39     8    13    1
    40     8     7    1
    41    13    39    1
    42    32    33    3
    43    20    19   ar
    44    20    44    1
    45    19    43    1
    46     7    11    1
    47     7    28    1
    48    49    23    1
    49    23    50    1
    50    28    29    1
    51    28    30    1
    52    28    31    1
