@<TRIPOS>MOLECULE
*****
 58 61 0 0 0
SMALL
USER_CHARGES

@<TRIPOS>ATOM
      1 C          -2.3670   -0.4831    1.5580 C.ar    1  LIG1       -0.179622
      2 C          -2.8912   -0.4841    0.2520 C.ar    1  LIG1        0.217627
      3 C          -1.9970   -0.6490   -0.8257 C.ar    1  LIG1       -0.187763
      4 C          -0.6368   -0.7977   -0.5963 C.ar    1  LIG1       -0.098307
      5 C          -0.1164   -0.7896    0.7077 C.ar    1  LIG1        0.188754
      6 C          -1.0026   -0.6400    1.7833 C.ar    1  LIG1       -0.112108
      7 C           1.3857   -1.0171    0.8704 C.3     1  LIG1        0.023152
      8 C           2.2774   -0.2326   -0.1071 C.3     1  LIG1        0.088583
      9 C           2.9493   -1.1757   -0.8639 C.2     1  LIG1       -0.203608
     10 C           2.5743   -2.5043   -0.4254 C.2     1  LIG1        0.492096
     11 O           1.6507   -2.4085    0.5534 O.2     1  LIG1       -0.368280
     12 C           2.9705   -3.7560   -0.8331 C.3     1  LIG1       -0.428628
     13 C           2.3697    1.2080   -0.1463 C.ar    1  LIG1       -0.000761
     14 C           3.4716    1.8634   -0.7542 C.ar    1  LIG1       -0.068386
     15 C           3.5712    3.2376   -0.8048 C.ar    1  LIG1       -0.240592
     16 C           2.5602    4.0708   -0.2550 C.ar    1  LIG1        0.295354
     17 C           1.4593    3.4226    0.3653 C.ar    1  LIG1       -0.240190
     18 C           1.3771    2.0465    0.4209 C.ar    1  LIG1       -0.037207
     19 N           2.6464    5.4344   -0.3164 N.pl3   1  LIG1       -0.204315
     20 C           1.6077    6.2638    0.2812 C.3     1  LIG1       -0.005767
     21 C           3.7820    6.0709   -0.9729 C.3     1  LIG1        0.007017
     22 C          -4.2860   -0.3226    0.0242 C.1     1  LIG1       -0.120019
     23 C          -5.4785   -0.1844   -0.1728 C.1     1  LIG1       -0.156800
     24 C          -6.8750   -0.0230   -0.4032 C.ar    1  LIG1        0.255462
     25 C          -7.7672    0.1173    0.6789 C.ar    1  LIG1       -0.195182
     26 C          -9.1308    0.2752    0.4485 C.ar    1  LIG1       -0.045825
     27 C          -9.6269    0.2964   -0.8575 C.ar    1  LIG1       -0.102095
     28 C          -8.7506    0.1576   -1.9370 C.ar    1  LIG1       -0.074818
     29 C          -7.3855   -0.0011   -1.7168 C.ar    1  LIG1       -0.169699
     30 C           3.9428   -3.9746   -1.8524 C.1     1  LIG1        0.442683
     31 N           4.7328   -4.2120   -2.6741 N.1     1  LIG1       -0.449095
     32 C           2.4040   -4.9113   -0.2129 C.1     1  LIG1        0.489894
     33 N           1.9500   -5.8621    0.2821 N.1     1  LIG1       -0.475745
     34 C           3.8274   -0.9223   -1.9518 C.1     1  LIG1        0.370531
     35 N           4.5303   -0.6785   -2.8473 N.1     1  LIG1       -0.413776
     36 C           1.9217   -0.8724    2.3226 C.3     1  LIG1        0.578451
     37 F           1.6667    0.3510    2.8289 F       1  LIG1       -0.190060
     38 F           1.3650   -1.7801    3.1399 F       1  LIG1       -0.150789
     39 F           3.2510   -1.0609    2.3452 F       1  LIG1       -0.197248
     40 H          -3.0414   -0.3660    2.4001 H       1  LIG1        0.129181
     41 H          -2.3818   -0.6586   -1.8402 H       1  LIG1        0.139237
     42 H           0.0302   -0.9220   -1.4441 H       1  LIG1        0.070750
     43 H          -0.6462   -0.6440    2.8050 H       1  LIG1        0.102760
     44 H           4.2829    1.2841   -1.1751 H       1  LIG1        0.113661
     45 H           4.4476    3.6726   -1.2686 H       1  LIG1        0.142803
     46 H           0.6580    4.0046    0.8035 H       1  LIG1        0.140459
     47 H           0.5081    1.6121    0.8966 H       1  LIG1        0.034504
     48 H           1.5149    6.0795    1.3593 H       1  LIG1        0.037843
     49 H           0.6300    6.0846   -0.1848 H       1  LIG1        0.029343
     50 H           1.8630    7.3141    0.1384 H       1  LIG1        0.074663
     51 H           4.7279    5.8319   -0.4693 H       1  LIG1        0.033042
     52 H           3.6486    7.1527   -0.9474 H       1  LIG1        0.068728
     53 H           3.8625    5.7628   -2.0229 H       1  LIG1        0.034025
     54 H          -7.3776    0.0993    1.6920 H       1  LIG1        0.119824
     55 H          -9.8093    0.3814    1.2905 H       1  LIG1        0.088706
     56 H         -10.6920    0.4193   -1.0333 H       1  LIG1        0.096724
     57 H          -9.1327    0.1720   -2.9540 H       1  LIG1        0.098906
     58 H          -6.7012   -0.1107   -2.5524 H       1  LIG1        0.111918
@<TRIPOS>BOND
     1    57    28    1
     2    35    34    3
     3    31    30    3
     4    58    29    1
     5    53    21    1
     6    34     9    1
     7    28    29   ar
     8    28    27   ar
     9    30    12    1
    10    41     3    1
    11    29    24   ar
    12    42     4    1
    13    45    15    1
    14    44    14    1
    15    56    27    1
    16    21    52    1
    17    21    51    1
    18    21    19    1
    19     9    10    2
    20     9     8    1
    21    27    26   ar
    22    12    10    1
    23    12    32    1
    24     3     4   ar
    25     3     2   ar
    26    15    14   ar
    27    15    16   ar
    28    14    13   ar
    29     4     5   ar
    30    10    11    1
    31    24    23    1
    32    24    25   ar
    33    19    16    1
    34    19    20    1
    35    16    17   ar
    36    32    33    3
    37    49    20    1
    38    23    22    3
    39    13     8    1
    40    13    18   ar
    41     8     7    1
    42    22     2    1
    43    50    20    1
    44     2     1   ar
    45    20    48    1
    46    17    18   ar
    47    17    46    1
    48    18    47    1
    49    26    25   ar
    50    26    55    1
    51    11     7    1
    52    25    54    1
    53     5     7    1
    54     5     6   ar
    55     7    36    1
    56     1     6   ar
    57     1    40    1
    58     6    43    1
    59    36    39    1
    60    36    37    1
    61    36    38    1
