@<TRIPOS>MOLECULE
*****
 93 96 0 0 0
SMALL
USER_CHARGES

@<TRIPOS>ATOM
      1 C          -1.7435   -0.4433   -0.2428 C.ar    1  LIG1       -0.182142
      2 C          -0.9824   -1.5146   -0.7464 C.ar    1  LIG1        0.273730
      3 C          -1.6666   -2.6594   -1.2059 C.ar    1  LIG1       -0.181868
      4 C          -3.0523   -2.7224   -1.1679 C.ar    1  LIG1       -0.111922
      5 C          -3.8070   -1.6449   -0.6740 C.ar    1  LIG1        0.011800
      6 C          -3.1330   -0.5114   -0.2048 C.ar    1  LIG1       -0.104937
      7 C          -5.3306   -1.7848   -0.6337 C.3     1  LIG1        0.168608
      8 C          -6.0780   -0.8100    0.2780 C.3     1  LIG1        0.156738
      9 C          -6.6242   -1.5700    1.3014 C.2     1  LIG1       -0.227228
     10 C          -6.3417   -2.9652    1.0587 C.2     1  LIG1        0.406752
     11 O          -5.6409   -3.0900   -0.0888 O.2     1  LIG1       -0.333038
     12 C          -6.6565   -4.1061    1.7619 C.3     1  LIG1       -0.366436
     13 C          -6.1501    0.5827   -0.0164 C.2     1  LIG1       -0.195216
     14 C          -6.7535    1.5421    0.7576 C.2     1  LIG1       -0.059686
     15 C          -6.8612    2.9453    0.4668 C.ar    1  LIG1        0.118858
     16 C          -7.5157    3.7860    1.3973 C.ar    1  LIG1       -0.138115
     17 C          -7.6631    5.1431    1.1881 C.ar    1  LIG1       -0.249280
     18 C          -7.1553    5.7553    0.0117 C.ar    1  LIG1        0.358661
     19 C          -6.4958    4.9152   -0.9298 C.ar    1  LIG1       -0.228332
     20 C          -6.3573    3.5618   -0.7037 C.ar    1  LIG1       -0.148031
     21 N          -7.2938    7.1003   -0.2106 N.pl3   1  LIG1       -0.362786
     22 C          -7.9733    7.9382    0.7687 C.3     1  LIG1        0.082968
     23 C          -6.7793    7.7024   -1.4333 C.3     1  LIG1        0.062504
     24 C           0.4379   -1.4546   -0.7793 C.1     1  LIG1       -0.183318
     25 C           1.6542   -1.4164   -0.8042 C.1     1  LIG1       -0.105773
     26 C           3.0760   -1.3894   -0.8328 C.ar    1  LIG1        0.175471
     27 C           3.8065   -2.4528   -1.4095 C.ar    1  LIG1       -0.143072
     28 C           5.1903   -2.4344   -1.4304 C.ar    1  LIG1       -0.231576
     29 C           5.8950   -1.3533   -0.8739 C.ar    1  LIG1        0.400436
     30 C           5.1869   -0.2876   -0.3003 C.ar    1  LIG1       -0.228419
     31 C           3.7942   -0.3123   -0.2841 C.ar    1  LIG1       -0.155283
     32 O           7.2500   -1.4371   -0.9411 O.3     1  LIG1       -0.447722
     33 C           8.0426   -0.3981   -0.3621 C.3     1  LIG1        0.315131
     34 C           9.5057   -0.7747   -0.5488 C.3     1  LIG1        0.030566
     35 C          10.4635    0.2631    0.0505 C.3     1  LIG1       -0.043939
     36 C          11.9403   -0.1146   -0.1254 C.3     1  LIG1        0.065153
     37 C          12.9103    0.9077    0.4806 C.3     1  LIG1        0.031604
     38 C          14.3857    0.5243    0.3078 C.3     1  LIG1        0.058923
     39 C          15.3599    1.5394    0.9197 C.3     1  LIG1       -0.022568
     40 C          16.8345    1.1531    0.7475 C.3     1  LIG1        0.011058
     41 C          17.8106    2.1639    1.3632 C.3     1  LIG1        0.190064
     42 C          19.2805    1.7697    1.1860 C.3     1  LIG1       -0.184185
     43 C          -7.3834   -1.0697    2.3898 C.1     1  LIG1        0.417743
     44 N          -7.9946   -0.5914    3.2584 N.1     1  LIG1       -0.419832
     45 C          -5.9481   -1.7992   -2.0593 C.3     1  LIG1        0.513559
     46 F          -5.6092   -0.6759   -2.7288 F       1  LIG1       -0.174278
     47 F          -5.5196   -2.8479   -2.7760 F       1  LIG1       -0.162628
     48 F          -7.2890   -1.8603   -2.0001 F       1  LIG1       -0.179846
     49 C          -7.3845   -4.0836    2.9863 C.1     1  LIG1        0.431595
     50 N          -7.9734   -4.1154    3.9905 N.1     1  LIG1       -0.432617
     51 C          -6.2419   -5.3774    1.2627 C.1     1  LIG1        0.476761
     52 N          -5.9057   -6.4181    0.8631 N.1     1  LIG1       -0.458884
     53 H          -1.2353    0.4408    0.1287 H       1  LIG1        0.123975
     54 H          -1.0968   -3.5016   -1.5847 H       1  LIG1        0.129019
     55 H          -3.5519   -3.6216   -1.5083 H       1  LIG1        0.129795
     56 H          -3.6836    0.3258    0.2081 H       1  LIG1        0.079377
     57 H          -5.6940    0.8818   -0.9535 H       1  LIG1        0.107508
     58 H          -7.2056    1.2390    1.6971 H       1  LIG1        0.083852
     59 H          -7.9180    3.3471    2.3071 H       1  LIG1        0.124216
     60 H          -8.1759    5.7349    1.9359 H       1  LIG1        0.134596
     61 H          -6.0924    5.3341   -1.8434 H       1  LIG1        0.123687
     62 H          -5.8478    2.9653   -1.4546 H       1  LIG1        0.129744
     63 H          -7.4680    7.9095    1.7427 H       1  LIG1        0.014454
     64 H          -9.0167    7.6283    0.9130 H       1  LIG1        0.018535
     65 H          -7.9723    8.9707    0.4181 H       1  LIG1        0.053027
     66 H          -5.6924    7.5744   -1.5211 H       1  LIG1        0.024853
     67 H          -6.9929    8.7716   -1.4220 H       1  LIG1        0.053670
     68 H          -7.2503    7.2713   -2.3264 H       1  LIG1        0.022483
     69 H           3.2691   -3.2931   -1.8379 H       1  LIG1        0.126282
     70 H           5.7570   -3.2492   -1.8697 H       1  LIG1        0.140444
     71 H           5.7079    0.5579    0.1335 H       1  LIG1        0.111601
     72 H           3.2495    0.5136    0.1633 H       1  LIG1        0.126248
     73 H           7.7984   -0.2958    0.7052 H       1  LIG1       -0.029953
     74 H           7.8188    0.5600   -0.8536 H       1  LIG1       -0.018661
     75 H           9.7028   -0.8958   -1.6217 H       1  LIG1        0.008250
     76 H           9.6752   -1.7551   -0.0854 H       1  LIG1        0.007046
     77 H          10.2471    0.3873    1.1218 H       1  LIG1        0.000423
     78 H          10.2820    1.2440   -0.4133 H       1  LIG1       -0.006473
     79 H          12.1585   -0.2334   -1.1968 H       1  LIG1       -0.018515
     80 H          12.1179   -1.0991    0.3315 H       1  LIG1       -0.019222
     81 H          12.6893    1.0272    1.5517 H       1  LIG1       -0.011840
     82 H          12.7342    1.8926    0.0230 H       1  LIG1       -0.011063
     83 H          14.6074    0.4085   -0.7636 H       1  LIG1       -0.020312
     84 H          14.5589   -0.4631    0.7610 H       1  LIG1       -0.019872
     85 H          15.1378    1.6550    1.9911 H       1  LIG1       -0.007543
     86 H          15.1877    2.5271    0.4666 H       1  LIG1       -0.007317
     87 H          17.0581    1.0402   -0.3239 H       1  LIG1       -0.007462
     88 H          17.0062    0.1640    1.1979 H       1  LIG1       -0.006382
     89 H          17.5879    2.2754    2.4340 H       1  LIG1       -0.041677
     90 H          17.6396    3.1525    0.9135 H       1  LIG1       -0.041919
     91 H          19.4901    0.8006    1.6553 H       1  LIG1        0.032345
     92 H          19.9513    2.5099    1.6371 H       1  LIG1        0.034142
     93 H          19.5433    1.6855    0.1243 H       1  LIG1        0.032912
@<TRIPOS>BOND
     1    47    45    1
     2    46    45    1
     3    68    23    1
     4    45    48    1
     5    45     7    1
     6    70    28    1
     7    61    19    1
     8    69    27    1
     9    75    34    1
    10    54     3    1
    11    66    23    1
    12    55     4    1
    13    62    20    1
    14    23    67    1
    15    23    21    1
    16    28    27   ar
    17    28    29   ar
    18    27    26   ar
    19     3     4   ar
    20     3     2   ar
    21    79    36    1
    22     4     5   ar
    23    57    13    1
    24    32    29    1
    25    32    33    1
    26    19    20   ar
    27    19    18   ar
    28    29    30   ar
    29    74    33    1
    30    26    25    1
    31    26    31   ar
    32    25    24    3
    33    24     2    1
    34    83    38    1
    35     2     1   ar
    36    20    15   ar
    37     5     7    1
    38     5     6   ar
    39     7    11    1
    40     7     8    1
    41    34    33    1
    42    34    76    1
    43    34    35    1
    44    78    35    1
    45    33    73    1
    46    87    40    1
    47    30    31   ar
    48    30    71    1
    49    31    72    1
    50     1     6   ar
    51     1    53    1
    52    21    18    1
    53    21    22    1
    54     6    56    1
    55    36    35    1
    56    36    80    1
    57    36    37    1
    58    11    10    1
    59    13     8    1
    60    13    14    2
    61    18    17   ar
    62    82    37    1
    63    35    77    1
    64    93    42    1
    65     8     9    1
    66    38    37    1
    67    38    84    1
    68    38    39    1
    69    65    22    1
    70    86    39    1
    71    15    14    1
    72    15    16   ar
    73    37    81    1
    74    40    39    1
    75    40    88    1
    76    40    41    1
    77    14    58    1
    78    22    64    1
    79    22    63    1
    80    52    51    3
    81    90    41    1
    82    39    85    1
    83    10     9    2
    84    10    12    1
    85    42    41    1
    86    42    92    1
    87    42    91    1
    88    17    16   ar
    89    17    60    1
    90    51    12    1
    91     9    43    1
    92    41    89    1
    93    16    59    1
    94    12    49    1
    95    43    44    3
    96    49    50    3
