#
#	File Created by: Spartan '08 Export
#

@<TRIPOS>MOLECULE
CHOL156_PM3
241 254
SMALL
MULLIKEN_CHARGES


@<TRIPOS>ATOM
    1   C1         6.181542918    -3.933290036     8.130574465     C.3   1  CHOL156_PM3    0.095954
    2   C2         6.636328798    -4.502807310     9.479849447     C.3   1  CHOL156_PM3   -0.125230
    3   C3         7.103531021    -5.945461977     9.387590930     C.3   1  CHOL156_PM3   -0.101857
    4   C4         7.038491517    -4.467417169     6.970080890     C.3   1  CHOL156_PM3   -0.073713
    5   C5         8.359801029    -4.942954725     7.478208870     C.2   1  CHOL156_PM3   -0.122926
    6   C6         9.511556516    -4.387539065     7.088184624     C.2   1  CHOL156_PM3   -0.131902
    7   C7        10.837940836    -4.844817368     7.564978922     C.3   1  CHOL156_PM3   -0.082863
    8   C8        10.799566666    -6.232542881     8.205368554     C.3   1  CHOL156_PM3   -0.073256
    9   C9        12.114958128    -6.625814209     8.902452305     C.3   1  CHOL156_PM3   -0.068080
   10   C10       13.332816606    -6.182488928     8.083260114     C.3   1  CHOL156_PM3   -0.109215
   11   C11       13.925627193    -4.967094668     8.790148880     C.3   1  CHOL156_PM3   -0.104082
   12   C12       13.042238477    -4.661973803    10.015006094     C.3   1  CHOL156_PM3   -0.079691
   13   C13       13.848288028    -3.999411972    11.146256237     C.3   1  CHOL156_PM3   -0.069595
   14   C14       14.582570752    -2.748230054    10.640247347     C.3   1  CHOL156_PM3   -0.109292
   15   C15       15.558881890    -2.218727663    11.678631688     C.3   1  CHOL156_PM3   -0.121574
   16   C16       16.167303940    -0.890981189    11.258083296     C.3   1  CHOL156_PM3   -0.100829
   17   C17       16.992152027    -0.273961812    12.389290046     C.3   1  CHOL156_PM3   -0.077069
   18   C18       17.744951607     0.947768019    11.891082231     C.3   1  CHOL156_PM3   -0.110995
   19   C19       16.097994294     0.093466205    13.563055910     C.3   1  CHOL156_PM3   -0.120688
   20   C20       12.967325588    -3.590151508    12.318420175     C.3   1  CHOL156_PM3   -0.135050
   21   C21       12.350550480    -6.022662869    10.318452961     C.3   1  CHOL156_PM3   -0.025539
   22   C22       13.298044385    -6.954813975    11.086171311     C.3   1  CHOL156_PM3   -0.123175
   23   C23       11.057994117    -5.924877256    11.140181867     C.3   1  CHOL156_PM3   -0.109234
   24   C24        9.834531125    -5.462477525    10.373370051     C.3   1  CHOL156_PM3   -0.109141
   25   C25        9.614370368    -6.364347007     9.165689604     C.3   1  CHOL156_PM3   -0.071381
   26   C26        8.283330508    -6.129361780     8.407842258     C.3   1  CHOL156_PM3    0.012059
   27   C27        8.026810211    -7.363564260     7.527561716     C.3   1  CHOL156_PM3   -0.126264
   28   O28        4.835934921    -4.349187121     7.823859560       O   1  CHOL156_PM3   -0.261306
   29   H29        9.587486430    -7.420377179     9.542499189       H   1  CHOL156_PM3    0.067064
   30   H30       10.619624737    -6.971960739     7.374745982       H   1  CHOL156_PM3    0.068784
   31   H31       12.094590581    -7.739275220     8.991453685       H   1  CHOL156_PM3    0.065286
   32   C32        3.782366586    -3.634086163     8.305180808     C.2   1  CHOL156_PM3    0.425888
   33   O33        3.962882302    -2.651815486     8.999602164     O.2   1  CHOL156_PM3   -0.378459
   34   C34        2.256164131    -4.676611633     6.603439071    C.ar   1  CHOL156_PM3    0.002152
   35   C35        1.001442231    -5.175945907     6.245960322    C.ar   1  CHOL156_PM3   -0.138825
   36   C36        0.807760538    -5.690613773     4.863931982     C.2   1  CHOL156_PM3    0.426466
   37   O37        1.641492131    -6.209248086     4.147325781     O.2   1  CHOL156_PM3   -0.373072
   38   O38       -0.465128221    -5.526129739     4.394284802       O   1  CHOL156_PM3   -0.264159
   39   C39       -0.034950818    -5.204635291     7.181639769    C.ar   1  CHOL156_PM3   -0.024589
   40   C40        0.181326203    -4.723777761     8.468210717    C.ar   1  CHOL156_PM3   -0.126997
   41   C41        1.423271284    -4.213086871     8.828146964    C.ar   1  CHOL156_PM3   -0.021500
   42   C42        2.462685669    -4.194214726     7.895659089    C.ar   1  CHOL156_PM3   -0.134572
   43   N43       -2.825823278    -6.245623395     1.611698302     N.3   1  CHOL156_PM3    0.028579
   44   C44       -2.277365925    -5.767352747     2.905887705     C.3   1  CHOL156_PM3   -0.106284
   45   C45       -2.525554436    -5.459080950     0.440989970    C.ar   1  CHOL156_PM3   -0.026408
   46   C46       -2.648381763    -6.012428003    -0.843538195    C.ar   1  CHOL156_PM3   -0.154873
   47   C47       -2.467354703    -5.221283041    -1.965785873    C.ar   1  CHOL156_PM3   -0.054533
   48   C48       -2.159850742    -3.862233630    -1.844243282    C.ar   1  CHOL156_PM3   -0.100700
   49   C49       -2.040110211    -3.308261354    -0.564539041    C.ar   1  CHOL156_PM3   -0.046453
   50   C50       -2.221375559    -4.092801870     0.562806145    C.ar   1  CHOL156_PM3   -0.160035
   51   C51       -1.969909484    -3.020987195    -3.016710862     C.2   1  CHOL156_PM3   -0.039220
   52   C52       -2.098615861    -3.488534548    -4.270792829     C.2   1  CHOL156_PM3   -0.113944
   53   C53       -1.922981751    -2.679171238    -5.449837815    C.ar   1  CHOL156_PM3   -0.180532
   54   C54       -1.546675202    -1.355437725    -5.500737657    C.ar   1  CHOL156_PM3   -0.118223
   55   C55       -1.469661850    -0.855281585    -6.835281781    C.ar   1  CHOL156_PM3   -0.077583
   56   C56       -1.791377759    -1.812410164    -7.784360254    C.ar   1  CHOL156_PM3   -0.264764
   57   S57       -2.183757160    -3.333819439    -7.039235011       S   1  CHOL156_PM3    0.339754
   58   C58       -1.795089195    -1.550426537    -9.200699478     C.2   1  CHOL156_PM3    0.015162
   59   C59       -2.081550379    -2.468522332   -10.142247868     C.2   1  CHOL156_PM3   -0.148811
   60   C60       -2.072325607    -2.204740563   -11.556465040     C.2   1  CHOL156_PM3   -0.006522
   61   C61       -2.056481836    -0.835497880   -12.233907116     C.3   1  CHOL156_PM3    0.152307
   62   O62       -2.035727991    -1.118827395   -13.664985983       O   1  CHOL156_PM3   -0.157992
   63   C63       -2.044927680    -2.494949220   -13.851291636     C.2   1  CHOL156_PM3    0.145110
   64   C64       -2.063590959    -3.154125905   -12.538329838     C.2   1  CHOL156_PM3    0.002613
   65   C65       -3.453361529    -0.087932707   -12.026395806     C.3   1  CHOL156_PM3    0.343095
   66   C66       -0.827335907    -0.026675601   -11.889495441    C.ar   1  CHOL156_PM3   -0.123486
   67   C67        0.418202550    -0.527501308   -12.286313631    C.ar   1  CHOL156_PM3   -0.069475
   68   C68        1.584836272     0.167539767   -11.994504266    C.ar   1  CHOL156_PM3   -0.095732
   69   C69        1.525618984     1.368227510   -11.294865543    C.ar   1  CHOL156_PM3   -0.073751
   70   C70        0.293381497     1.870299746   -10.893061024    C.ar   1  CHOL156_PM3   -0.092461
   71   C71       -0.878409107     1.181849253   -11.192151599    C.ar   1  CHOL156_PM3   -0.088178
   72   C72       -2.033279012    -2.985449255   -15.117888216     C.2   1  CHOL156_PM3    0.100321
   73   C73       -1.051845864     0.540980928    -7.155727665     C.3   1  CHOL156_PM3    0.123277
   74   C74       -0.772824537    -6.014984193     3.089455343     C.3   1  CHOL156_PM3    0.045408
   75   C75       -3.849081994     8.609849650    -2.857808693     C.3   1  CHOL156_PM3    0.094857
   76   C76       -4.406026869     8.536301668    -1.433415078     C.3   1  CHOL156_PM3   -0.105381
   77   C77       -5.873739284     8.151767739    -1.417460021     C.3   1  CHOL156_PM3   -0.105723
   78   C78       -4.675477606     9.596739884    -3.687304595     C.3   1  CHOL156_PM3   -0.088322
   79   C79       -6.146874998     9.333855440    -3.633957944     C.2   1  CHOL156_PM3   -0.114432
   80   C80       -6.875494947     9.428424397    -4.754467010     C.2   1  CHOL156_PM3   -0.142830
   81   C81       -8.340122471     9.215119498    -4.820926614     C.3   1  CHOL156_PM3   -0.080229
   82   C82       -9.010619840     9.194080373    -3.447681131     C.3   1  CHOL156_PM3   -0.077547
   83   C83      -10.462098587     8.686061987    -3.473396064     C.3   1  CHOL156_PM3   -0.064698
   84   C84      -11.224408589     9.192250373    -4.710874256     C.3   1  CHOL156_PM3   -0.107901
   85   C85      -11.433136053     7.999890395    -5.645947425     C.3   1  CHOL156_PM3   -0.100241
   86   C86      -10.673960631     6.828453810    -5.018847120     C.3   1  CHOL156_PM3   -0.090746
   87   C87      -11.142764092     5.414841911    -5.380713911     C.3   1  CHOL156_PM3   -0.072186
   88   C88      -12.657895423     5.256873951    -5.525057891     C.3   1  CHOL156_PM3   -0.117349
   89   C89      -13.050728170     3.789542438    -5.565080553     C.3   1  CHOL156_PM3   -0.118800
   90   C90      -14.525554100     3.604759756    -5.881401291     C.3   1  CHOL156_PM3   -0.101005
   91   C91      -14.863255387     2.131432879    -6.117826409     C.3   1  CHOL156_PM3   -0.076941
   92   C92      -16.365772038     1.945131142    -6.241366484     C.3   1  CHOL156_PM3   -0.111134
   93   C93      -14.158385432     1.615487474    -7.362509240     C.3   1  CHOL156_PM3   -0.120860
   94   C94      -10.467118730     4.948375984    -6.664972884     C.3   1  CHOL156_PM3   -0.123978
   95   C95      -10.639619743     7.143762020    -3.499843272     C.3   1  CHOL156_PM3   -0.034515
   96   C96      -11.963312140     6.794153880    -2.807616837     C.3   1  CHOL156_PM3   -0.126730
   97   C97       -9.539969140     6.341616632    -2.791716603     C.3   1  CHOL156_PM3   -0.097880
   98   C98       -8.146214238     6.929516986    -2.895834030     C.3   1  CHOL156_PM3   -0.110412
   99   C99       -8.167176262     8.390331473    -2.450716955     C.3   1  CHOL156_PM3   -0.069864
  100   C100      -6.769387655     9.052394290    -2.287226451     C.3   1  CHOL156_PM3    0.019229
  101   C101      -6.969134457    10.399662792    -1.573249148     C.3   1  CHOL156_PM3   -0.125799
  102   O102      -3.925444352     7.271672356    -3.377439234       O   1  CHOL156_PM3   -0.258761
  103   H103      -8.663984034     8.432216309    -1.447593793       H   1  CHOL156_PM3    0.068179
  104   H104      -9.034418571    10.257585382    -3.079127819       H   1  CHOL156_PM3    0.070882
  105   H105     -10.941315510     9.082027249    -2.544516330       H   1  CHOL156_PM3    0.065608
  106   C106      -3.242273882     6.942078166    -4.508463736     C.2   1  CHOL156_PM3    0.427342
  107   O107      -2.415421907     7.701704500    -4.975407245     O.2   1  CHOL156_PM3   -0.375864
  108   C108      -2.635398246     4.817485641    -5.649800680    C.ar   1  CHOL156_PM3    0.002481
  109   C109      -2.971751297     3.558449043    -6.150468481    C.ar   1  CHOL156_PM3   -0.140966
  110   C110      -1.917839209     2.749308887    -6.817130586     C.2   1  CHOL156_PM3    0.428823
  111   O111      -1.025880683     3.148841121    -7.540750923     O.2   1  CHOL156_PM3   -0.381186
  112   O112      -2.005667456     1.413365408    -6.544492722       O   1  CHOL156_PM3   -0.256541
  113   C113      -4.281778226     3.086317853    -6.046334596    C.ar   1  CHOL156_PM3   -0.022684
  114   C114      -5.252165123     3.874422376    -5.437708655    C.ar   1  CHOL156_PM3   -0.128330
  115   C115      -4.924719656     5.124776079    -4.924561114    C.ar   1  CHOL156_PM3   -0.024679
  116   C116      -3.613553355     5.595470289    -5.029033196    C.ar   1  CHOL156_PM3   -0.135384
  117   C117      -2.792011778    -7.717499005     1.460772047     C.3   1  CHOL156_PM3   -0.104735
  118   H118       6.237204189    -2.818106501     8.160638016       H   1  CHOL156_PM3    0.073245
  119   H119       7.465015799    -3.871282980     9.862209570       H   1  CHOL156_PM3    0.067007
  120   H120       5.823594048    -4.417398724    10.227892520       H   1  CHOL156_PM3    0.064480
  121   H121       7.408415133    -6.286352773    10.401875969       H   1  CHOL156_PM3    0.061481
  122   H122       6.253162368    -6.590875827     9.090983941       H   1  CHOL156_PM3    0.062079
  123   H123       6.552654801    -5.336567796     6.467437513       H   1  CHOL156_PM3    0.080189
  124   H124       7.156061628    -3.690081769     6.190929936       H   1  CHOL156_PM3    0.058908
  125   H125       9.515939266    -3.536794432     6.395526169       H   1  CHOL156_PM3    0.100428
  126   H126      11.570715935    -4.860567052     6.726815366       H   1  CHOL156_PM3    0.063622
  127   H127      11.230038873    -4.088590574     8.285966338       H   1  CHOL156_PM3    0.076741
  128   H128      14.074583481    -6.998718891     8.009461831       H   1  CHOL156_PM3    0.051287
  129   H129      13.044652953    -5.937122571     7.038767059       H   1  CHOL156_PM3    0.060684
  130   H130      14.971352543    -5.169241658     9.094758031       H   1  CHOL156_PM3    0.055654
  131   H131      13.971516735    -4.094757761     8.110955016       H   1  CHOL156_PM3    0.050643
  132   H132      12.234220600    -3.944506207     9.705632657       H   1  CHOL156_PM3    0.076286
  133   H133      14.615056981    -4.728657302    11.510454899       H   1  CHOL156_PM3    0.069336
  134   H134      15.136865350    -2.963951598     9.705045271       H   1  CHOL156_PM3    0.056627
  135   H135      13.841970818    -1.966836077    10.373543303       H   1  CHOL156_PM3    0.053664
  136   H136      15.038029956    -2.092792321    12.662355009       H   1  CHOL156_PM3    0.067022
  137   H137      16.358646670    -2.963293884    11.863307635       H   1  CHOL156_PM3    0.051734
  138   H138      16.803625841    -1.033291701    10.362082705       H   1  CHOL156_PM3    0.051043
  139   H139      15.370271195    -0.183973147    10.950105510       H   1  CHOL156_PM3    0.053518
  140   H140      17.736461279    -1.033155067    12.734747058       H   1  CHOL156_PM3    0.061424
  141   H141      18.336411840     1.404155400    12.695363324       H   1  CHOL156_PM3    0.039312
  142   H142      18.435820279     0.690205879    11.077718343       H   1  CHOL156_PM3    0.038737
  143   H143      17.060452743     1.717436386    11.509425173       H   1  CHOL156_PM3    0.039900
  144   H144      16.685048865     0.378455008    14.444463916       H   1  CHOL156_PM3    0.040220
  145   H145      15.434295844     0.934046301    13.320745814       H   1  CHOL156_PM3    0.041458
  146   H146      15.458239781    -0.761888248    13.839279477       H   1  CHOL156_PM3    0.045771
  147   H147      13.555001518    -3.027521525    13.063579974       H   1  CHOL156_PM3    0.048930
  148   H148      12.139806269    -2.942037744    11.998132304       H   1  CHOL156_PM3    0.043846
  149   H149      12.527131976    -4.461527006    12.826836609       H   1  CHOL156_PM3    0.050835
  150   H150      14.281216092    -7.020953215    10.600182986       H   1  CHOL156_PM3    0.046952
  151   H151      13.457992526    -6.604448794    12.115412955       H   1  CHOL156_PM3    0.044803
  152   H152      12.896668976    -7.976089971    11.149789552       H   1  CHOL156_PM3    0.042012
  153   H153      10.839119154    -6.924094298    11.574220092       H   1  CHOL156_PM3    0.051842
  154   H154      11.224220149    -5.258294792    12.013549241       H   1  CHOL156_PM3    0.066745
  155   H155       8.939575870    -5.507087146    11.034296407       H   1  CHOL156_PM3    0.058982
  156   H156       9.928627051    -4.401293593    10.066261491       H   1  CHOL156_PM3    0.063831
  157   H157       7.208338654    -7.171165875     6.816538543       H   1  CHOL156_PM3    0.051038
  158   H158       8.932382714    -7.612538705     6.949318736       H   1  CHOL156_PM3    0.050510
  159   H159       7.758450796    -8.243589421     8.125438326       H   1  CHOL156_PM3    0.043687
  160   H160       3.074060579    -4.672299105     5.870357579       H   1  CHOL156_PM3    0.132202
  161   H161      -1.019296557    -5.603184578     6.908873103       H   1  CHOL156_PM3    0.117210
  162   H162      -0.632342808    -4.744468634     9.201422069       H   1  CHOL156_PM3    0.114128
  163   H163       1.586989652    -3.821545158     9.839707058       H   1  CHOL156_PM3    0.120757
  164   H164      -2.859708068    -6.265195007     3.707098990       H   1  CHOL156_PM3    0.073408
  165   H165      -2.497729198    -4.678541382     2.983073621       H   1  CHOL156_PM3    0.079252
  166   H166      -2.900484808    -7.077049470    -0.964407302       H   1  CHOL156_PM3    0.119449
  167   H167      -2.565741302    -5.651634172    -2.974806923       H   1  CHOL156_PM3    0.108755
  168   H168      -1.803167928    -2.243979672    -0.450086629       H   1  CHOL156_PM3    0.103623
  169   H169      -2.134067545    -3.638525323     1.562079385       H   1  CHOL156_PM3    0.119502
  170   H170      -1.715787629    -1.968384291    -2.828035396       H   1  CHOL156_PM3    0.103849
  171   H171      -2.356083438    -4.551138897    -4.426945395       H   1  CHOL156_PM3    0.120862
  172   H172      -1.330969109    -0.737281147    -4.625839269       H   1  CHOL156_PM3    0.137104
  173   H173      -1.530860271    -0.509175644    -9.472930828       H   1  CHOL156_PM3    0.126650
  174   H174      -2.324314562    -3.503740767    -9.855723447       H   1  CHOL156_PM3    0.136284
  175   H175       0.479859503    -1.474490220   -12.835967029       H   1  CHOL156_PM3    0.110417
  176   H176       2.551716471    -0.233277150   -12.317783628       H   1  CHOL156_PM3    0.112309
  177   H177       2.444971257     1.916583207   -11.062607959       H   1  CHOL156_PM3    0.111622
  178   H178       0.237579676     2.812897018   -10.334631437       H   1  CHOL156_PM3    0.126736
  179   H179      -1.827072653     1.625334876   -10.868979184       H   1  CHOL156_PM3    0.120254
  180   H180      -0.044085736     0.749826505    -6.749035825       H   1  CHOL156_PM3    0.061942
  181   H181      -1.022631007     0.701193763    -8.258745368       H   1  CHOL156_PM3    0.061319
  182   H182      -0.515647267    -7.089886722     3.016021874       H   1  CHOL156_PM3    0.056592
  183   H183      -0.172294316    -5.469617340     2.336057952       H   1  CHOL156_PM3    0.058613
  184   H184      -2.780416293     8.934698869    -2.834544167       H   1  CHOL156_PM3    0.070884
  185   H185      -3.826189056     7.813559976    -0.826174998       H   1  CHOL156_PM3    0.060554
  186   H186      -4.257244893     9.524493730    -0.952985387       H   1  CHOL156_PM3    0.060310
  187   H187      -5.972473129     7.094600736    -1.751520042       H   1  CHOL156_PM3    0.071222
  188   H188      -6.249052304     8.165623551    -0.374073052       H   1  CHOL156_PM3    0.054760
  189   H189      -4.490022499    10.619407192    -3.297384068       H   1  CHOL156_PM3    0.068388
  190   H190      -4.315267722     9.605921475    -4.736623268       H   1  CHOL156_PM3    0.073995
  191   H191      -6.391154638     9.660047234    -5.712294208       H   1  CHOL156_PM3    0.101595
  192   H192      -8.824994392    10.000025940    -5.443832238       H   1  CHOL156_PM3    0.064397
  193   H193      -8.523063935     8.256524518    -5.362631456       H   1  CHOL156_PM3    0.074335
  194   H194     -12.193422853     9.634463060    -4.416516110       H   1  CHOL156_PM3    0.050598
  195   H195     -10.661454327    10.004835948    -5.218076070       H   1  CHOL156_PM3    0.060915
  196   H196     -12.511833734     7.779546860    -5.764420630       H   1  CHOL156_PM3    0.059087
  197   H197     -11.062094181     8.206227673    -6.667267184       H   1  CHOL156_PM3    0.050274
  198   H198      -9.605300433     6.906988969    -5.368930832       H   1  CHOL156_PM3    0.075693
  199   H199     -10.788313241     4.758416999    -4.536810848       H   1  CHOL156_PM3    0.069273
  200   H200     -13.179218960     5.771484508    -4.686504014       H   1  CHOL156_PM3    0.067399
  201   H201     -13.002930469     5.768295052    -6.447695983       H   1  CHOL156_PM3    0.057602
  202   H202     -12.434295174     3.259597443    -6.336438318       H   1  CHOL156_PM3    0.065835
  203   H203     -12.803338452     3.301797298    -4.601267200       H   1  CHOL156_PM3    0.050905
  204   H204     -15.142776098     4.005024212    -5.052717571       H   1  CHOL156_PM3    0.050988
  205   H205     -14.803860402     4.198485079    -6.775853987       H   1  CHOL156_PM3    0.053903
  206   H206     -14.503827362     1.543730014    -5.237420399       H   1  CHOL156_PM3    0.061014
  207   H207     -16.621543656     0.892049280    -6.416274828       H   1  CHOL156_PM3    0.039658
  208   H208     -16.886885122     2.265086690    -5.329611341       H   1  CHOL156_PM3    0.038646
  209   H209     -16.778536819     2.526542727    -7.076954694       H   1  CHOL156_PM3    0.040251
  210   H210     -14.571067926     2.061154840    -8.277318475       H   1  CHOL156_PM3    0.041978
  211   H211     -13.085351480     1.869707015    -7.327880267       H   1  CHOL156_PM3    0.045332
  212   H212     -14.247785600     0.526386015    -7.455283387       H   1  CHOL156_PM3    0.040652
  213   H213     -10.633636762     5.654905862    -7.488930683       H   1  CHOL156_PM3    0.043922
  214   H214      -9.382886599     4.833899177    -6.539884596       H   1  CHOL156_PM3    0.036144
  215   H215     -10.875780167     3.971612558    -6.975914590       H   1  CHOL156_PM3    0.048205
  216   H216     -12.082613295     7.345478101    -1.865224304       H   1  CHOL156_PM3    0.044262
  217   H217     -12.829737716     7.024915322    -3.449004444       H   1  CHOL156_PM3    0.053698
  218   H218     -12.024467115     5.722146690    -2.568666275       H   1  CHOL156_PM3    0.044006
  219   H219      -9.794823800     6.234463105    -1.716763485       H   1  CHOL156_PM3    0.053796
  220   H220      -9.560342243     5.309727462    -3.212885084       H   1  CHOL156_PM3    0.056299
  221   H221      -7.444953905     6.338132160    -2.266903673       H   1  CHOL156_PM3    0.059507
  222   H222      -7.749423406     6.841572531    -3.929323166       H   1  CHOL156_PM3    0.060881
  223   H223      -7.310443726    10.261756302    -0.538489086       H   1  CHOL156_PM3    0.043102
  224   H224      -6.040543177    10.984241078    -1.540499071       H   1  CHOL156_PM3    0.045951
  225   H225      -7.729951122    11.004693028    -2.094025410       H   1  CHOL156_PM3    0.052239
  226   H226      -1.610383879     5.199314258    -5.753266266       H   1  CHOL156_PM3    0.134258
  227   H227      -4.548921328     2.099627648    -6.443204646       H   1  CHOL156_PM3    0.119289
  228   H228      -6.281963726     3.508045674    -5.361400697       H   1  CHOL156_PM3    0.114689
  229   H229      -5.699208931     5.736671064    -4.439326073       H   1  CHOL156_PM3    0.126038
  230   H230      -3.354766857    -8.169381607     2.287903639       H   1  CHOL156_PM3    0.053640
  231   H231      -3.274327455    -8.009084951     0.513901036       H   1  CHOL156_PM3    0.061137
  232   H232      -1.773940424    -8.136521144     1.463801691       H   1  CHOL156_PM3    0.037086
  233   C233      -2.041765106    -4.376310511   -15.411298288     C.1   1  CHOL156_PM3   -0.116151
  234   C234      -2.011374683    -2.131462037   -16.256860215     C.1   1  CHOL156_PM3   -0.104619
  235   C235      -2.070699341    -4.550842717   -12.332942327     C.1   1  CHOL156_PM3   -0.105598
  236   N236      -1.991969286    -1.443676772   -17.190321193     N.1   1  CHOL156_PM3   -0.018780
  237   N237      -2.047936051    -5.500629758   -15.696219197     N.1   1  CHOL156_PM3   -0.010506
  238   N238      -2.075928138    -5.692501295   -12.127312770     N.1   1  CHOL156_PM3    0.000350
  239   F239      -3.540056914     1.088102214   -12.678316999       F   1  CHOL156_PM3   -0.118973
  240   F240      -3.763712091     0.192213279   -10.742752371       F   1  CHOL156_PM3   -0.131824
  241   F241      -4.503468358    -0.809058239   -12.474927184       F   1  CHOL156_PM3   -0.127810


@<TRIPOS>BOND
    1      1      2    1
    2      2      3    1
    3      1      4    1
    4      4      5    1
    5      5      6    2
    6      6      7    1
    7      7      8    1
    8      8      9    1
    9      9     10    1
   10     10     11    1
   11     12     11    1
   12     12     13    1
   13     13     14    1
   14     14     15    1
   15     15     16    1
   16     16     17    1
   17     17     18    1
   18     17     19    1
   19     13     20    1
   20     12     21    1
   21      9     21    1
   22     21     22    1
   23     21     23    1
   24     23     24    1
   25     24     25    1
   26      8     25    1
   27     25     26    1
   28      3     26    1
   29      5     26    1
   30     26     27    1
   31      1     28    1
   32     25     29    1
   33      8     30    1
   34      9     31    1
   35     28     32    1
   36     32     33    2
   37     34     35    ar
   38     35     36    1
   39     36     37    2
   40     36     38    1
   41     35     39    ar
   42     39     40    ar
   43     40     41    ar
   44     41     42    ar
   45     42     34    ar
   46     32     42    1
   47     43     45    1
   48     45     46    ar
   49     46     47    ar
   50     47     48    ar
   51     48     49    ar
   52     49     50    ar
   53     50     45    ar
   54     48     51    1
   55     51     52    2
   56     52     53    1
   57     53     54    ar
   58     54     55    ar
   59     55     56    ar
   60     56     57    ar
   61     57     53    ar
   62     56     58    1
   63     58     59    2
   64     59     60    1
   65     60     61    1
   66     61     62    1
   67     62     63    1
   68     63     64    1
   69     64     60    2
   70     61     65    1
   71     61     66    1
   72     66     67    ar
   73     67     68    ar
   74     68     69    ar
   75     69     70    ar
   76     70     71    ar
   77     71     66    ar
   78     63     72    2
   79     55     73    1
   80     44     74    1
   81     38     74    1
   82     75     76    1
   83     76     77    1
   84     75     78    1
   85     78     79    1
   86     79     80    2
   87     80     81    1
   88     81     82    1
   89     82     83    1
   90     83     84    1
   91     84     85    1
   92     86     85    1
   93     86     87    1
   94     87     88    1
   95     88     89    1
   96     89     90    1
   97     90     91    1
   98     91     92    1
   99     91     93    1
  100     87     94    1
  101     86     95    1
  102     83     95    1
  103     95     96    1
  104     95     97    1
  105     97     98    1
  106     98     99    1
  107     82     99    1
  108     99    100    1
  109     77    100    1
  110     79    100    1
  111    100    101    1
  112     75    102    1
  113     99    103    1
  114     82    104    1
  115     83    105    1
  116    102    106    1
  117    106    107    2
  118    108    109    ar
  119    109    110    1
  120    110    111    2
  121    110    112    1
  122    109    113    ar
  123    113    114    ar
  124    114    115    ar
  125    115    116    ar
  126    116    108    ar
  127    106    116    1
  128    112     73    1
  129     43    117    1
  130     44     43    1
  131      1    118    1
  132      2    119    1
  133      2    120    1
  134      3    121    1
  135      3    122    1
  136      4    123    1
  137      4    124    1
  138      6    125    1
  139      7    126    1
  140      7    127    1
  141     10    128    1
  142     10    129    1
  143     11    130    1
  144     11    131    1
  145     12    132    1
  146     13    133    1
  147     14    134    1
  148     14    135    1
  149     15    136    1
  150     15    137    1
  151     16    138    1
  152     16    139    1
  153     17    140    1
  154     18    141    1
  155     18    142    1
  156     18    143    1
  157     19    144    1
  158     19    145    1
  159     19    146    1
  160     20    147    1
  161     20    148    1
  162     20    149    1
  163     22    150    1
  164     22    151    1
  165     22    152    1
  166     23    153    1
  167     23    154    1
  168     24    155    1
  169     24    156    1
  170     27    157    1
  171     27    158    1
  172     27    159    1
  173     34    160    1
  174     39    161    1
  175     40    162    1
  176     41    163    1
  177     44    164    1
  178     44    165    1
  179     46    166    1
  180     47    167    1
  181     49    168    1
  182     50    169    1
  183     51    170    1
  184     52    171    1
  185     54    172    1
  186     58    173    1
  187     59    174    1
  188     67    175    1
  189     68    176    1
  190     69    177    1
  191     70    178    1
  192     71    179    1
  193     73    180    1
  194     73    181    1
  195     74    182    1
  196     74    183    1
  197     75    184    1
  198     76    185    1
  199     76    186    1
  200     77    187    1
  201     77    188    1
  202     78    189    1
  203     78    190    1
  204     80    191    1
  205     81    192    1
  206     81    193    1
  207     84    194    1
  208     84    195    1
  209     85    196    1
  210     85    197    1
  211     86    198    1
  212     87    199    1
  213     88    200    1
  214     88    201    1
  215     89    202    1
  216     89    203    1
  217     90    204    1
  218     90    205    1
  219     91    206    1
  220     92    207    1
  221     92    208    1
  222     92    209    1
  223     93    210    1
  224     93    211    1
  225     93    212    1
  226     94    213    1
  227     94    214    1
  228     94    215    1
  229     96    216    1
  230     96    217    1
  231     96    218    1
  232     97    219    1
  233     97    220    1
  234     98    221    1
  235     98    222    1
  236    101    223    1
  237    101    224    1
  238    101    225    1
  239    108    226    1
  240    113    227    1
  241    114    228    1
  242    115    229    1
  243    117    230    1
  244    117    231    1
  245    117    232    1
  246     72    233    1
  247     72    234    1
  248     64    235    1
  249    234    236    3
  250    233    237    3
  251    235    238    3
  252     65    239    1
  253     65    240    1
  254     65    241    1
