@<TRIPOS>MOLECULE
CLD-C1 PM3 structure with B3LYP/6-31G(d) charges
 176 185 0 0 0
SMALL
USER_CHARGES
Energy = -3.14E+006

@<TRIPOS>ATOM
	1	C	-2.9724	-3.3688	-2.7056	C.3	1	LIG1	-0.202983
	2	C	-2.449	-3.193	-1.3171	C.cat	1	LIG1	0.262104
	3	C	-3.1438	-3.7172	-0.2776	C.cat	1	LIG1	-0.285055
	4	C	-4.3507	-4.4986	-0.5569	C.cat	1	LIG1	0.23261
	5	C	-5.1809	-4.1186	-1.7395	C.3	1	LIG1	-0.357102
	6	C	-4.4965	-3.1961	-2.761	C.3	1	LIG1	0.455215
	7	C	-4.9892	-3.5538	-4.164	C.3	1	LIG1	-0.491673
	8	C	-4.8592	-1.739	-2.4693	C.3	1	LIG1	-0.329127
	9	C	-2.7136	-3.5684	1.1453	C.3	1	LIG1	-0.089591
	10	C	-3.4594	-2.4004	1.7902	C.3	1	LIG1	0.260805
	11	C	3.0622	0.3616	-1.4023	C.ar	1	LIG1	0.308008
	12	C	2.5042	-0.4302	-0.3849	C.ar	1	LIG1	-0.326004
	13	C	1.3137	-1.1049	-0.596	C.ar	1	LIG1	-0.081751
	14	C	0.644	-1.0114	-1.8206	C.ar	1	LIG1	0.115798
	15	C	1.1955	-0.2205	-2.8335	C.ar	1	LIG1	-0.174477
	16	C	2.3872	0.4577	-2.6291	C.ar	1	LIG1	-0.237972
	17	N	4.2426	1.1518	-1.1388	N.pl3	1	LIG1	-0.264749
	18	C	-0.6082	-1.7161	-2.0514	C.cat	1	LIG1	-0.158861
	19	C	-1.1958	-2.4813	-1.1185	C.cat	1	LIG1	-0.299168
	20	C	5.151	0.6584	-0.0698	C.3	1	LIG1	-0.140355
	21	C	6.0411	-0.5159	-0.5088	C.3	1	LIG1	0.225142
	22	C	4.9965	1.6697	-2.3045	C.3	1	LIG1	-0.212954
	23	C	-4.6821	-5.552	0.2241	C.cat	1	LIG1	-0.30764
	24	C	-5.7927	-6.4249	-0.0784	C.cat	1	LIG1	0.055428
	25	C	-6.3409	-7.2389	0.8414	C.cat	1	LIG1	-0.257004
	26	C	-7.4453	-8.1344	0.6215	C.cat	1	LIG1	0.075712
	27	C	-8.1287	-8.4917	-0.6974	C.3	1	LIG1	0.149931
	28	O	-9.1657	-9.4534	-0.34	O.2	1	LIG1	-0.310309
	29	C	-9.15	-9.6465	1.0348	C.cat	1	LIG1	0.442661
	30	C	-8.0819	-8.8252	1.6154	C.cat	1	LIG1	-0.239014
	31	C	-10.0537	-10.4971	1.5871	C.cat	1	LIG1	-0.459748
	32	C	-7.1734	-9.3487	-1.6567	C.3	1	LIG1	0.40796
	33	C	-8.7792	-7.3084	-1.3812	C.ar	1	LIG1	0.146384
	34	C	-8.1088	-6.5726	-2.3613	C.ar	1	LIG1	-0.199707
	35	C	-8.7214	-5.4891	-2.979	C.ar	1	LIG1	-0.073969
	36	C	-10.0172	-5.1257	-2.629	C.ar	1	LIG1	-0.122669
	37	C	-10.6885	-5.8435	-1.646	C.ar	1	LIG1	-0.090193
	38	C	-10.0744	-6.9237	-1.0212	C.ar	1	LIG1	-0.167348
	39	O	-2.9595	-2.2574	3.115	O.3	1	LIG1	-0.449141
	40	C	-2.9749	-1.023	3.6986	C.cat	1	LIG1	0.780512
	41	O	-2.5123	-1.1188	4.815	O.2	1	LIG1	-0.510052
	42	C	-3.4907	0.227	3.0237	C.3	1	LIG1	-0.578144
	43	C	-4.9716	0.4169	3.3137	C.3	1	LIG1	0.095359
	44	C	-5.509	1.6413	2.5897	C.3	1	LIG1	0.066382
	45	C	-6.9829	1.8507	2.905	C.3	1	LIG1	-0.417155
	46	C	-7.536	2.9941	2.083	C.cat	1	LIG1	0.726271
	47	O	-7.8513	2.9864	0.9132	O.2	1	LIG1	-0.500935
	48	O	-7.6703	4.1492	2.8149	O.3	1	LIG1	-0.436531
	49	C	-8.1473	5.2956	2.1777	C.ar	1	LIG1	0.384765
	50	C	-7.2285	6.2142	1.6611	C.ar	1	LIG1	-0.197543
	51	C	-7.6973	7.4155	1.144	C.ar	1	LIG1	-0.096821
	52	C	-9.0667	7.6942	1.1481	C.ar	1	LIG1	-0.165881
	53	C	-9.9749	6.7668	1.6634	C.ar	1	LIG1	-0.052271
	54	C	-9.52	5.5597	2.181	C.ar	1	LIG1	-0.233281
	55	C	-9.5302	8.9826	0.5699	C.cat	1	LIG1	0.736711
	56	O	-9.0794	9.5714	-0.3892	O.2	1	LIG1	-0.503293
	57	O	-10.5895	9.5294	1.2597	O.3	1	LIG1	-0.457125
	58	C	-11.1423	10.7227	0.7939	C.ar	1	LIG1	0.512327
	59	C	-10.6247	11.9431	1.2613	C.ar	1	LIG1	-0.335343
	60	C	-11.2518	13.1237	0.906	C.ar	1	LIG1	-0.078903
	61	C	-12.3923	13.1053	0.0906	C.ar	1	LIG1	-0.189683
	62	C	-12.8917	11.8712	-0.3628	C.ar	1	LIG1	0.489466
	63	C	-12.2706	10.6604	-0.0184	C.ar	1	LIG1	-0.49973
	64	C	-13.0716	14.3217	-0.3026	C.ar	1	LIG1	0.072152
	65	C	-14.1621	14.2487	-1.0853	C.ar	1	LIG1	-0.443533
	66	C	-14.6494	12.9369	-1.5289	C.ar	1	LIG1	0.739973
	67	O	-14.0066	11.7709	-1.1613	O.2	1	LIG1	-0.358778
	68	O	-15.6006	12.6504	-2.2222	O.2	1	LIG1	-0.512855
	69	O	7.0192	-0.8169	0.4668	O.3	1	LIG1	-0.416668
	70	C	8.2225	-0.1614	0.4389	C.cat	1	LIG1	0.731216
	71	O	8.8839	-0.541	1.3809	O.2	1	LIG1	-0.499026
	72	C	8.5927	0.8427	-0.6259	C.3	1	LIG1	-0.464234
	73	C	10.0933	0.9244	-0.8435	C.3	1	LIG1	0.07569
	74	C	10.4247	1.9413	-1.9249	C.3	1	LIG1	0.198298
	75	C	11.9275	2.0465	-2.1189	C.3	1	LIG1	-0.276018
	76	C	12.3031	3.0131	-3.2123	C.cat	1	LIG1	0.680492
	77	O	11.5908	3.672	-3.9359	O.2	1	LIG1	-0.486585
	78	O	13.6092	3.2912	-3.5447	O.3	1	LIG1	-0.381823
	79	C	14.6252	2.6378	-2.8549	C.ar	1	LIG1	0.350268
	80	C	15.3615	3.3676	-1.916	C.ar	1	LIG1	-0.212301
	81	C	16.4553	2.7698	-1.3009	C.ar	1	LIG1	-0.090675
	82	C	16.8072	1.4571	-1.6211	C.ar	1	LIG1	-0.124336
	83	C	16.0739	0.7406	-2.5707	C.ar	1	LIG1	-0.119267
	84	C	14.9773	1.3256	-3.1909	C.ar	1	LIG1	-0.199001
	85	C	17.9804	0.8008	-0.9853	C.cat	1	LIG1	0.719989
	86	O	18.7746	0.0427	-1.4984	O.2	1	LIG1	-0.495681
	87	O	18.1112	1.1191	0.3477	O.3	1	LIG1	-0.459368
	88	C	19.1977	0.5993	1.0527	C.ar	1	LIG1	0.501898
	89	C	19.036	-0.612	1.747	C.ar	1	LIG1	-0.335176
	90	C	20.0609	-1.0694	2.5556	C.ar	1	LIG1	-0.067289
	91	C	21.2477	-0.334	2.6831	C.ar	1	LIG1	-0.204088
	92	C	21.3847	0.8756	1.9785	C.ar	1	LIG1	0.461474
	93	C	20.3596	1.359	1.15	C.ar	1	LIG1	-0.474836
	94	C	22.3411	-0.7845	3.5183	C.ar	1	LIG1	0.093456
	95	C	23.4575	-0.0412	3.6068	C.ar	1	LIG1	-0.463759
	96	C	23.5521	1.2173	2.8567	C.ar	1	LIG1	0.759492
	97	O	22.5152	1.6543	2.0551	O.2	1	LIG1	-0.355967
	98	O	24.4505	2.0276	2.7997	O.2	1	LIG1	-0.516549
	99	H	-2.4841	-2.6446	-3.3977	H	1	LIG1	0.054625
	100	H	-2.6863	-4.3761	-3.0709	H	1	LIG1	0.067158
	101	H	-5.5316	-5.0578	-2.2322	H	1	LIG1	0.137591
	102	H	-6.1066	-3.634	-1.3624	H	1	LIG1	0.103525
	103	H	-6.0857	-3.5054	-4.2242	H	1	LIG1	0.116724
	104	H	-4.5849	-2.863	-4.9156	H	1	LIG1	0.118387
	105	H	-4.6879	-4.5696	-4.4546	H	1	LIG1	0.111181
	106	H	-5.9411	-1.5692	-2.5517	H	1	LIG1	0.083973
	107	H	-4.5515	-1.4491	-1.4552	H	1	LIG1	0.058109
	108	H	-4.3649	-1.0559	-3.1731	H	1	LIG1	0.081256
	109	H	-2.911	-4.5155	1.6969	H	1	LIG1	0.075459
	110	H	-1.6138	-3.4018	1.1984	H	1	LIG1	0.063014
	111	H	-3.3273	-1.4674	1.1977	H	1	LIG1	0.010595
	112	H	-4.5454	-2.5986	1.8601	H	1	LIG1	0.034978
	113	H	3.0098	-0.5146	0.5897	H	1	LIG1	0.186156
	114	H	0.8736	-1.7276	0.199	H	1	LIG1	0.111123
	115	H	0.6825	-0.1334	-3.7985	H	1	LIG1	0.131854
	116	H	2.7963	1.0798	-3.4395	H	1	LIG1	0.154994
	117	H	-1.077	-1.5997	-3.0436	H	1	LIG1	0.140466
	118	H	-0.7224	-2.5937	-0.1214	H	1	LIG1	0.173239
	119	H	5.771	1.5219	0.2478	H	1	LIG1	0.099455
	120	H	4.5375	0.3713	0.8128	H	1	LIG1	0.100096
	121	H	5.4754	-1.4615	-0.5747	H	1	LIG1	0.056914
	122	H	6.5015	-0.3086	-1.5065	H	1	LIG1	0.006659
	123	H	5.7806	0.966	-2.6408	H	1	LIG1	0.07621
	124	H	4.33	1.8821	-3.1546	H	1	LIG1	0.115347
	125	H	5.4839	2.6082	-2.0088	H	1	LIG1	0.103302
	126	H	-4.0778	-5.7663	1.1226	H	1	LIG1	0.167319
	127	H	-6.1616	-6.383	-1.124	H	1	LIG1	0.076097
	128	H	-5.9456	-7.239	1.8689	H	1	LIG1	0.17495
	129	H	-7.0732	-6.8192	-2.6367	H	1	LIG1	0.114941
	130	H	-8.1731	-4.9201	-3.7398	H	1	LIG1	0.109215
	131	H	-10.5041	-4.2779	-3.1227	H	1	LIG1	0.126334
	132	H	-11.7078	-5.5606	-1.3602	H	1	LIG1	0.12861
	133	H	-10.6278	-7.4688	-0.2471	H	1	LIG1	0.136167
	134	H	-2.9103	1.1011	3.379	H	1	LIG1	0.163896
	135	H	-3.3132	0.1616	1.926	H	1	LIG1	0.153773
	136	H	-5.5364	-0.4864	3.0031	H	1	LIG1	0.013439
	137	H	-5.1355	0.5149	4.4057	H	1	LIG1	0.048078
	138	H	-4.9274	2.5392	2.8797	H	1	LIG1	0.046496
	139	H	-5.3644	1.5283	1.4961	H	1	LIG1	0.02239
	140	H	-7.5646	0.936	2.6724	H	1	LIG1	0.125028
	141	H	-7.1229	2.0319	3.9903	H	1	LIG1	0.129785
	142	H	-6.1553	5.9933	1.6606	H	1	LIG1	0.146962
	143	H	-6.991	8.1427	0.7251	H	1	LIG1	0.136529
	144	H	-11.0498	6.9834	1.6617	H	1	LIG1	0.128662
	145	H	-10.2299	4.8288	2.584	H	1	LIG1	0.162184
	146	H	-9.7327	11.9577	1.8972	H	1	LIG1	0.182317
	147	H	-10.8598	14.0844	1.2596	H	1	LIG1	0.139664
	148	H	-12.6665	9.7036	-0.3805	H	1	LIG1	0.227536
	149	H	-12.6729	15.2791	0.0519	H	1	LIG1	0.116775
	150	H	-14.7194	15.1306	-1.4181	H	1	LIG1	0.190505
	151	H	8.0715	0.5822	-1.5771	H	1	LIG1	0.143037
	152	H	8.187	1.8308	-0.3241	H	1	LIG1	0.154218
	153	H	10.6004	1.1933	0.1054	H	1	LIG1	0.014146
	154	H	10.4907	-0.0724	-1.1214	H	1	LIG1	0.020511
	155	H	9.9364	1.6585	-2.8793	H	1	LIG1	-0.034162
	156	H	10.0066	2.9332	-1.6595	H	1	LIG1	-0.02497
	157	H	12.4185	2.3659	-1.1762	H	1	LIG1	0.072111
	158	H	12.3601	1.0533	-2.364	H	1	LIG1	0.059989
	159	H	15.0891	4.4025	-1.6776	H	1	LIG1	0.151523
	160	H	17.0388	3.3365	-0.5653	H	1	LIG1	0.139915
	161	H	16.3699	-0.2824	-2.8346	H	1	LIG1	0.14063
	162	H	14.4068	0.7699	-3.9443	H	1	LIG1	0.152417
	163	H	18.1088	-1.187	1.647	H	1	LIG1	0.182847
	164	H	19.9523	-2.0131	3.1027	H	1	LIG1	0.139181
	165	H	20.4786	2.3018	0.6021	H	1	LIG1	0.226158
	166	H	22.2271	-1.7302	4.0605	H	1	LIG1	0.113773
	167	H	24.3191	-0.3269	4.2193	H	1	LIG1	0.195758
	168	C	-7.767	-8.7673	2.9904	C.1	1	LIG1	0.402257
	169	C	-10.118	-10.7625	2.9821	C.1	1	LIG1	0.449814
	170	C	-11.0147	-11.1908	0.7983	C.1	1	LIG1	0.488374
	171	F	-6.8824	-10.569	-1.1582	F	1	LIG1	-0.130406
	172	F	-7.7133	-9.5843	-2.8684	F	1	LIG1	-0.136512
	173	F	-5.966	-8.8009	-1.9112	F	1	LIG1	-0.150758
	174	N	-10.2073	-11.0069	4.1124	N.1	1	LIG1	-0.426343
	175	N	-11.8024	-11.7577	0.1635	N.1	1	LIG1	-0.451118
	176	N	-7.4846	-8.6949	4.1134	N.1	1	LIG1	-0.407315
@<TRIPOS>BOND
	1	104	7	1
	2	105	7	1
	3	103	7	1
	4	7	6	1
	5	162	84	1
	6	77	76	2
	7	115	15	1
	8	130	35	1
	9	78	76	1
	10	78	79	1
	11	116	16	1
	12	99	1	1
	13	76	75	1
	14	84	79	ar
	15	84	83	ar
	16	108	8	1
	17	124	22	1
	18	131	36	1
	19	100	1	1
	20	117	18	1
	21	35	36	ar
	22	35	34	ar
	23	155	74	1
	24	172	32	1
	25	79	80	ar
	26	161	83	1
	27	15	16	ar
	28	15	14	ar
	29	6	1	1
	30	6	8	1
	31	6	5	1
	32	1	2	1
	33	123	22	1
	34	129	34	1
	35	16	11	ar
	36	36	37	ar
	37	83	82	ar
	38	106	8	1
	39	8	107	1
	40	158	75	1
	41	34	33	ar
	42	22	125	1
	43	22	17	1
	44	101	5	1
	45	68	66	2
	46	75	74	1
	47	75	157	1
	48	18	14	1
	49	18	19	2
	50	74	156	1
	51	74	73	1
	52	80	159	1
	53	80	81	ar
	54	173	32	1
	55	14	13	ar
	56	5	102	1
	57	5	4	1
	58	32	171	1
	59	32	27	1
	60	37	132	1
	61	37	38	ar
	62	82	81	ar
	63	82	85	1
	64	151	72	1
	65	66	67	ar
	66	66	65	ar
	67	122	21	1
	68	86	85	2
	69	150	65	1
	70	11	17	1
	71	11	12	ar
	72	33	38	ar
	73	33	27	1
	74	2	19	1
	75	2	3	2
	76	81	160	1
	77	67	62	ar
	78	17	20	1
	79	127	24	1
	80	154	73	1
	81	19	118	1
	82	65	64	ar
	83	38	133	1
	84	85	87	1
	85	73	72	1
	86	73	153	1
	87	27	28	1
	88	27	26	1
	89	72	152	1
	90	72	70	1
	91	13	12	ar
	92	13	114	1
	93	121	21	1
	94	4	3	1
	95	4	23	2
	96	21	20	1
	97	21	69	1
	98	56	55	2
	99	12	113	1
	100	148	63	1
	101	62	63	ar
	102	62	61	ar
	103	28	29	1
	104	64	149	1
	105	64	61	ar
	106	3	9	1
	107	24	23	1
	108	24	25	2
	109	20	119	1
	110	20	120	1
	111	63	58	ar
	112	61	60	ar
	113	175	170	3
	114	23	126	1
	115	87	88	1
	116	70	69	1
	117	70	71	2
	118	55	52	1
	119	55	57	1
	120	165	93	1
	121	26	25	1
	122	26	30	2
	123	143	51	1
	124	58	57	1
	125	58	59	ar
	126	170	31	1
	127	25	128	1
	128	60	147	1
	129	60	59	ar
	130	47	46	2
	131	29	31	2
	132	29	30	1
	133	88	93	ar
	134	88	89	ar
	135	51	52	ar
	136	51	50	ar
	137	9	110	1
	138	9	109	1
	139	9	10	1
	140	52	53	ar
	141	93	92	ar
	142	111	10	1
	143	59	146	1
	144	139	44	1
	145	31	169	1
	146	30	168	1
	147	163	89	1
	148	142	50	1
	149	50	49	ar
	150	144	53	1
	151	53	54	ar
	152	89	90	ar
	153	10	112	1
	154	10	39	1
	155	135	42	1
	156	92	97	ar
	157	92	91	ar
	158	97	96	ar
	159	46	48	1
	160	46	45	1
	161	49	54	ar
	162	49	48	1
	163	54	145	1
	164	90	91	ar
	165	90	164	1
	166	44	138	1
	167	44	45	1
	168	44	43	1
	169	140	45	1
	170	91	94	ar
	171	98	96	2
	172	96	95	ar
	173	45	141	1
	174	169	174	3
	175	168	176	3
	176	136	43	1
	177	42	43	1
	178	42	134	1
	179	42	40	1
	180	39	40	1
	181	43	137	1
	182	94	95	ar
	183	94	166	1
	184	95	167	1
	185	40	41	2
