@<TRIPOS>MOLECULE
*****
 33 33 0 0 0
SMALL
USER_CHARGES

@<TRIPOS>ATOM
      1 O           7.0192   -0.8169    0.4668 O.3     1  LIG1       -0.4806
      2 C           8.2225   -0.1614    0.4389 C.2     1  LIG1        0.3047
      3 O           8.8839   -0.5410    1.3809 O.2     1  LIG1       -0.2510
      4 C           8.5927    0.8427   -0.6259 C.3     1  LIG1        0.0448
      5 C          10.0933    0.9244   -0.8435 C.3     1  LIG1       -0.0425
      6 C          10.4247    1.9413   -1.9249 C.3     1  LIG1       -0.0425
      7 C          11.9275    2.0465   -2.1189 C.3     1  LIG1        0.0454
      8 C          12.3031    3.0131   -3.2123 C.2     1  LIG1        0.3123
      9 O          11.5908    3.6720   -3.9359 O.2     1  LIG1       -0.2504
     10 O          13.6092    3.2912   -3.5447 O.3     1  LIG1       -0.4258
     11 C          14.6252    2.6378   -2.8549 C.ar    1  LIG1        0.1317
     12 C          15.3615    3.3676   -1.9160 C.ar    1  LIG1       -0.0185
     13 C          16.4553    2.7698   -1.3009 C.ar    1  LIG1       -0.0443
     14 C          16.8072    1.4571   -1.6211 C.ar    1  LIG1        0.0591
     15 C          16.0739    0.7406   -2.5707 C.ar    1  LIG1       -0.0443
     16 C          14.9773    1.3256   -3.1909 C.ar    1  LIG1       -0.0185
     17 C          17.9804    0.8008   -0.9853 C.2     1  LIG1        0.3368
     18 O          18.7746    0.0427   -1.4984 O.2     1  LIG1       -0.2451
     19 O          18.1112    1.1191    0.3477 O.3     1  LIG1       -0.4771
     20 H           8.0715    0.5822   -1.5771 H       1  LIG1        0.0377
     21 H           8.1870    1.8308   -0.3241 H       1  LIG1        0.0377
     22 H          10.6004    1.1933    0.1054 H       1  LIG1        0.0271
     23 H          10.4907   -0.0724   -1.1214 H       1  LIG1        0.0271
     24 H           9.9364    1.6585   -2.8793 H       1  LIG1        0.0271
     25 H          10.0066    2.9332   -1.6595 H       1  LIG1        0.0271
     26 H          12.4185    2.3659   -1.1762 H       1  LIG1        0.0378
     27 H          12.3601    1.0533   -2.3640 H       1  LIG1        0.0378
     28 H          15.0891    4.4025   -1.6776 H       1  LIG1        0.0654
     29 H          17.0388    3.3365   -0.5653 H       1  LIG1        0.0627
     30 H          16.3699   -0.2824   -2.8346 H       1  LIG1        0.0627
     31 H          14.4068    0.7699   -3.9443 H       1  LIG1        0.0654
     32 H           6.8365   -1.4320    1.1496 H       1  LIG1        0.2951
     33 H          17.5012    1.7045    0.7516 H       1  LIG1        0.2954
@<TRIPOS>BOND
     1    31    16    1
     2     9     8    2
     3    10     8    1
     4    10    11    1
     5     8     7    1
     6    16    11   ar
     7    16    15   ar
     8    24     6    1
     9    11    12   ar
    10    30    15    1
    11    15    14   ar
    12    27     7    1
    13     7     6    1
    14     7    26    1
    15     6    25    1
    16     6     5    1
    17    12    28    1
    18    12    13   ar
    19    14    13   ar
    20    14    17    1
    21    20     4    1
    22    18    17    2
    23    13    29    1
    24    23     5    1
    25    17    19    1
    26     5     4    1
    27     5    22    1
    28     4    21    1
    29     4     2    1
    30     2     1    1
    31     2     3    2
    32     1    32    1
    33    19    33    1
