@<TRIPOS>MOLECULE
*****
 48 50 0 0 0
SMALL
USER_CHARGES

@<TRIPOS>ATOM
	1	O	-8.605710	3.786239	-0.434173	O.2	1	LIG1	-0.597814
	2	C	-7.372736	3.258674	-0.226576	C.2	1	LIG1	0.711189
	3	O	-6.424893	3.932885	0.111415	O.2	1	LIG1	-0.543312
	4	C	-7.361717	1.765012	-0.470811	C.3	1	LIG1	-0.211781
	5	C	-5.985681	1.135641	-0.246241	C.3	1	LIG1	0.018288
	6	C	-5.989856	-0.376724	-0.494976	C.3	1	LIG1	0.172729
	7	C	-4.611463	-1.002727	-0.267721	C.3	1	LIG1	-0.194473
	8	C	-4.615139	-2.501819	-0.504729	C.2	1	LIG1	0.744325
	9	O	-5.574885	-3.146752	-0.831592	O.2	1	LIG1	-0.494570
	10	O	-3.416741	-3.174102	-0.328394	O.3	1	LIG1	-0.462011
	11	C	-2.243305	-2.537989	0.042343	C.2	1	LIG1	0.410319
	12	C	-1.364572	-2.090566	-0.946738	C.2	1	LIG1	-0.214233
	13	C	-0.149788	-1.520728	-0.576930	C.2	1	LIG1	-0.049667
	14	C	0.188624	-1.401015	0.779167	C.2	1	LIG1	-0.121304
	15	C	-0.699599	-1.866450	1.760249	C.2	1	LIG1	-0.052818
	16	C	-1.913445	-2.438244	1.396381	C.2	1	LIG1	-0.204471
	17	C	1.467090	-0.801312	1.241139	C.2	1	LIG1	0.668154
	18	O	1.791609	-0.669094	2.398832	O.2	1	LIG1	-0.489978
	19	O	2.247198	-0.415655	0.177324	O.3	1	LIG1	-0.404335
	20	C	3.486888	0.183013	0.364023	C.2	1	LIG1	0.418761
	21	C	3.706518	1.203793	1.301483	C.2	1	LIG1	-0.286626
	22	C	4.958909	1.796407	1.355414	C.2	1	LIG1	-0.084859
	23	C	5.996733	1.400467	0.492329	C.2	1	LIG1	-0.091668
	24	C	5.734640	0.377673	-0.439886	C.2	1	LIG1	0.388016
	25	C	4.484762	-0.235694	-0.508644	C.2	1	LIG1	-0.369492
	26	C	7.317849	1.974261	0.491858	C.2	1	LIG1	0.021415
	27	C	8.259669	1.539562	-0.376043	C.2	1	LIG1	-0.366025
	28	C	7.983740	0.480636	-1.341702	C.2	1	LIG1	0.759154
	29	O	6.689167	-0.054052	-1.311108	O.3	1	LIG1	-0.393717
	30	O	8.757236	0.031184	-2.151700	O.2	1	LIG1	-0.514571
	31	H	-8.119171	1.312169	0.182936	H	1	LIG1	0.079954
	32	H	-7.718398	1.589449	-1.494540	H	1	LIG1	0.080094
	33	H	-5.256288	1.626288	-0.902935	H	1	LIG1	0.015726
	34	H	-5.656379	1.350239	0.778191	H	1	LIG1	0.017811
	35	H	-6.718331	-0.867960	0.161525	H	1	LIG1	-0.029696
	36	H	-6.317570	-0.592918	-1.519132	H	1	LIG1	-0.029409
	37	H	-3.859442	-0.544250	-0.923733	H	1	LIG1	0.019124
	38	H	-4.257316	-0.808424	0.753521	H	1	LIG1	0.019607
	39	H	-1.635550	-2.205577	-1.991495	H	1	LIG1	0.141851
	40	H	0.539395	-1.171812	-1.336939	H	1	LIG1	0.105621
	41	H	-0.418672	-1.775745	2.804068	H	1	LIG1	0.111482
	42	H	-2.602881	-2.819408	2.143101	H	1	LIG1	0.139052
	43	H	2.916869	1.510153	1.973461	H	1	LIG1	0.176249
	44	H	5.148697	2.586620	2.076823	H	1	LIG1	0.121070
	45	H	4.298944	-1.020829	-1.232124	H	1	LIG1	0.189440
	46	H	7.543964	2.765121	1.203512	H	1	LIG1	0.107099
	47	H	9.262955	1.948207	-0.404871	H	1	LIG1	0.153589
	48	H	-8.523402	4.742230	-0.256549	H	1	LIG1	0.416710
@<TRIPOS>BOND
1	1	2	1	# 0.941805
2	1	48	1	# 0
3	2	3	2	# 1.87719
4	2	4	1	# 0.95853
5	4	5	1	# 0.985355
6	4	31	1	# 0.97699
7	4	32	1	# 0.976995
8	5	6	1	# 0.98501
9	5	33	1	# 0.98333
10	5	34	1	# 0.983325
11	6	7	1	# 0.9844
12	6	35	1	# 0.98331
13	6	36	1	# 0.983345
14	7	8	1	# 0.961365
15	7	37	1	# 0.97577
16	7	38	1	# 0.975725
17	8	9	2	# 1.89063
18	8	10	1	# 0.93094
19	10	11	1	# 0.97615
20	11	12	2	# 1.61374
21	11	16	1	# 0.975415
22	12	13	1	# 0.98076
23	12	39	1	# 0.983815
24	13	14	2	# 1.60689
25	13	40	1	# 0.983845
26	14	15	1	# 0.976375
27	14	17	1	# 0.95571
28	15	16	2	# 1.66448
29	15	41	1	# 0.983175
30	16	42	1	# 0.98375
31	17	18	2	# 1.85698
32	17	19	1	# 0.93578
33	19	20	1	# 0.977065
34	20	21	1	# 0.976165
35	20	25	2	# 1.63623
36	21	22	2	# 1.68164
37	21	43	1	# 0.983265
38	22	23	1	# 0.97577
39	22	44	1	# 0.98396
40	23	24	2	# 1.54344
41	23	26	1	# 0.97573
42	24	25	1	# 0.976705
43	24	29	1	# 0.979285
44	25	45	1	# 0.9825
45	26	27	2	# 1.82935
46	26	46	1	# 0.98349
47	27	28	1	# 0.96388
48	27	47	1	# 0.98219
49	28	29	1	# 0.92948
50	28	30	2	# 1.84051
