@<TRIPOS>MOLECULE
*****
 17 18 0 0 0
SMALL
USER_CHARGES

@<TRIPOS>ATOM
	1	C	2.603364	-1.008128	0.000058	C.2	1	LIG1	-0.038586
	2	C	2.863150	0.370903	-0.000008	C.2	1	LIG1	-0.118227
	3	C	1.807408	1.271627	-0.000026	C.2	1	LIG1	-0.136029
	4	C	0.476307	0.814785	-0.000003	C.2	1	LIG1	-0.044329
	5	C	0.240720	-0.573828	-0.000028	C.2	1	LIG1	0.372666
	6	C	1.297422	-1.486622	0.000046	C.2	1	LIG1	-0.248573
	7	C	-0.675739	1.681444	0.000023	C.2	1	LIG1	-0.005031
	8	C	-1.926733	1.168875	-0.000001	C.2	1	LIG1	-0.342964
	9	C	-2.166455	-0.271490	-0.000131	C.2	1	LIG1	0.748935
	10	O	-1.026453	-1.080627	-0.000124	O.3	1	LIG1	-0.400825
	11	O	-3.244661	-0.815033	0.000137	O.2	1	LIG1	-0.515497
	12	H	3.887279	0.731509	0.000093	H	1	LIG1	0.105521
	13	H	1.994541	2.342494	-0.000150	H	1	LIG1	0.115946
	14	H	1.074765	-2.548458	-0.000056	H	1	LIG1	0.151046
	15	H	-0.518912	2.757881	0.000173	H	1	LIG1	0.111210
	16	H	-2.814700	1.790282	0.000108	H	1	LIG1	0.145783
	17	H	3.429279	-1.713816	0.000147	H	1	LIG1	0.098953
@<TRIPOS>BOND
1	1	2	1	# 0.98272
2	1	6	2	# 1.66714
3	1	17	1	# 0.98527
4	2	3	2	# 1.68068
5	2	12	1	# 0.985225
6	3	4	1	# 0.97566
7	3	13	1	# 0.98438
8	4	5	2	# 1.54815
9	4	7	1	# 0.97583
10	5	6	1	# 0.97779
11	5	10	1	# 0.97904
12	6	14	1	# 0.98381
13	7	8	2	# 1.83184
14	7	15	1	# 0.983465
15	8	9	1	# 0.963675
16	8	16	1	# 0.98226
17	9	10	1	# 0.93051
18	9	11	2	# 1.83966
