@<TRIPOS>MOLECULE
*****
 12 12 0 0 0
SMALL
USER_CHARGES

@<TRIPOS>ATOM
	1	C	-0.489881	-1.304625	0.000006	C	1	LIG1	0.088311
	2	C	-1.374525	-0.228072	-0.000004	C	1	LIG1	0.107629
	3	C	-0.884771	1.076424	0.000004	C	1	LIG1	0.083798
	4	F	-2.692672	-0.446428	-0.000004	F	1	LIG1	-0.096820
	5	C	0.489884	1.304627	-0.000003	C	1	LIG1	0.088315
	6	F	-1.733654	2.108195	0.000006	F	1	LIG1	-0.090913
	7	C	1.374520	0.228080	0.000005	C	1	LIG1	0.107625
	8	F	0.959795	2.555399	-0.000007	F	1	LIG1	-0.092001
	9	C	0.884765	-1.076424	-0.000001	C	1	LIG1	0.083801
	10	F	-0.959821	-2.555394	-0.000001	F	1	LIG1	-0.092004
	11	F	1.733678	-2.108187	-0.000001	F	1	LIG1	-0.090918
	12	F	2.692679	0.446409	0.000002	F	1	LIG1	-0.096823
@<TRIPOS>BOND
1	1	2	1	# 0.968675
2	1	9	2	# 1.58695
3	1	10	1	# 0.98791
4	2	3	2	# 1.58699
5	2	4	1	# 0.98791
6	3	5	1	# 0.96867
7	3	6	1	# 0.98791
8	5	7	2	# 1.58699
9	5	8	1	# 0.98791
10	7	9	1	# 0.96867
11	7	12	1	# 0.98791
12	9	11	1	# 0.98791
