@<TRIPOS>MOLECULE
*****
 60 62 0 0 0
SMALL
USER_CHARGES

@<TRIPOS>ATOM
	1	C	-3.661896	0.716578	-0.168627	C.ar	1	LIG1	-0.130109
	2	C	-2.653760	-0.195445	-0.115178	C.ar	1	LIG1	-0.234102
	3	C	-1.253700	0.132636	-0.114641	C.ar	1	LIG1	0.190260
	4	C	-0.613121	1.372868	-0.178875	C.ar	1	LIG1	-0.203287
	5	C	0.783318	1.294220	-0.151732	C.ar	1	LIG1	-0.101456
	6	C	1.278489	-0.007714	-0.065862	C.ar	1	LIG1	0.077425
	7	S	-0.063360	-1.143710	-0.020017	S.2	1	LIG1	-0.141321
	8	C	2.622009	-0.479572	-0.014078	C.ar	1	LIG1	-0.133288
	9	C	3.742145	0.312232	-0.043911	C.ar	1	LIG1	-0.242542
	10	C	5.092370	-0.125081	0.009001	C.ar	1	LIG1	0.086121
	11	C	5.610958	-1.553040	0.107528	C.3	1	LIG1	0.468884
	12	O	7.065295	-1.378167	0.125889	O.2	1	LIG1	-0.408042
	13	C	7.395267	-0.076880	0.051635	C.ar	1	LIG1	0.443794
	14	C	6.191922	0.717966	-0.022073	C.ar	1	LIG1	-0.248049
	15	C	6.097696	2.131206	-0.112426	C.ar	1	LIG1	0.395711
	16	N	5.911542	3.278335	-0.187803	N.1	1	LIG1	-0.434408
	17	C	8.727673	0.280127	0.056652	C.ar	1	LIG1	-0.418920
	18	C	9.728422	-0.732998	0.139843	C.ar	1	LIG1	0.481838
	19	N	10.549775	-1.555962	0.207451	N.1	1	LIG1	-0.487138
	20	C	9.158268	1.635550	-0.018124	C.ar	1	LIG1	0.444060
	21	N	9.552551	2.730074	-0.077423	N.1	1	LIG1	-0.462030
	22	C	5.251274	-2.252788	1.423981	C.3	1	LIG1	-0.178265
	23	C	5.301138	-2.409262	-1.126535	C.3	1	LIG1	-0.187745
	24	H	-2.895609	-1.254683	-0.066903	H	1	LIG1	0.185246
	25	H	-1.153918	2.309887	-0.244846	H	1	LIG1	0.140780
	26	H	2.741422	-1.557380	0.055322	H	1	LIG1	0.228972
	27	H	3.613662	1.389825	-0.113708	H	1	LIG1	0.159270
	28	H	5.801988	-3.195431	1.493755	H	1	LIG1	0.082048
	29	H	4.180845	-2.468832	1.478039	H	1	LIG1	0.009781
	30	H	5.522147	-1.625354	2.277815	H	1	LIG1	0.045608
	31	H	4.232419	-2.628902	-1.197946	H	1	LIG1	0.012545
	32	H	5.848201	-3.354159	-1.057395	H	1	LIG1	0.084093
	33	H	5.610505	-1.892542	-2.039441	H	1	LIG1	0.048823
	34	H	-3.392114	1.771250	-0.215266	H	1	LIG1	0.115675
	35	C	-10.212250	1.016736	0.017546	C.3	1	LIG1	0.348041
	36	N	-9.312540	-0.113295	-0.226257	N.3	1	LIG1	-0.575495
	37	C	-9.830050	-1.482530	-0.083507	C.3	1	LIG1	0.447074
	38	C	-7.940530	0.079017	-0.181789	C.ar	1	LIG1	0.398538
	39	C	-7.035439	-1.014741	-0.104293	C.ar	1	LIG1	-0.251462
	40	C	-5.664881	-0.824339	-0.104308	C.ar	1	LIG1	-0.105675
	41	C	-5.087021	0.460279	-0.169954	C.ar	1	LIG1	0.103648
	42	C	-5.986428	1.544838	-0.227179	C.ar	1	LIG1	-0.126375
	43	C	-7.359563	1.372911	-0.226396	C.ar	1	LIG1	-0.260498
	44	H	-11.197221	0.753273	-0.369852	H	1	LIG1	-0.024300
	45	C	-10.324901	1.428349	1.491758	C.3	1	LIG1	-0.152582
	46	H	-9.599490	-1.879685	0.918820	H	1	LIG1	-0.057482
	47	C	-11.323646	-1.651334	-0.358101	C.3	1	LIG1	-0.255020
	48	H	-9.291579	-2.112612	-0.799508	H	1	LIG1	-0.040097
	49	H	-7.405167	-2.028861	-0.030517	H	1	LIG1	0.122654
	50	H	-5.028234	-1.702424	-0.041622	H	1	LIG1	0.089505
	51	H	-5.589430	2.556853	-0.269288	H	1	LIG1	0.099682
	52	H	1.428357	2.165298	-0.193258	H	1	LIG1	0.133169
	53	H	-9.882222	1.863514	-0.590823	H	1	LIG1	-0.035125
	54	H	-7.982932	2.257027	-0.263672	H	1	LIG1	0.153370
	55	H	-9.348786	1.707362	1.901224	H	1	LIG1	0.024547
	56	H	-10.723757	0.608830	2.100266	H	1	LIG1	0.048279
	57	H	-10.998904	2.286365	1.597513	H	1	LIG1	0.027277
	58	H	-11.559504	-2.720256	-0.325695	H	1	LIG1	0.049974
	59	H	-11.597224	-1.279682	-1.351233	H	1	LIG1	0.076439
	60	H	-11.953939	-1.156805	0.387467	H	1	LIG1	0.071681
@<TRIPOS>BOND
1	1	2	ar	# 1.24884
2	1	34	1	# 0.981365
3	1	41	ar	# 1.32499
4	2	3	ar	# 1.46598
5	2	24	1	# 0.98026
6	3	4	1	# 1.19772
7	3	7	1	# 0.97656
8	4	5	ar	# 1.41321
9	4	25	1	# 0.980685
10	5	6	1	# 1.19704
11	5	52	1	# 0.980725
12	6	7	1	# 0.97656
13	6	8	ar	# 1.44728
14	8	9	ar	# 1.23081
15	8	26	1	# 0.980375
16	9	10	ar	# 1.33715
17	9	27	1	# 0.97851
18	10	11	1	# 1.11165
19	10	14	1	# 1.11056
20	11	12	1	# 0.975305
21	11	22	1	# 0.968945
22	11	23	1	# 0.968945
23	12	13	1	# 0.975305
24	13	14	ar	# 1.32267
25	13	17	1	# 1.14536
26	14	15	ar	# 1.20441
27	15	16	3	# 2.90821
28	17	18	ar	# 1.20514
29	17	20	ar	# 1.20514
30	18	19	3	# 2.90867
31	20	21	3	# 2.9051
32	22	28	1	# 0.989663
33	22	29	1	# 0.989663
34	22	30	1	# 0.989663
35	23	31	1	# 0.989663
36	23	32	1	# 0.989663
37	23	33	1	# 0.989663
38	35	36	1	# 0.97848
39	35	44	1	# 0.982925
40	35	45	1	# 0.98468
41	35	53	1	# 0.982925
42	36	37	1	# 0.97848
43	36	38	1	# 0.97848
44	37	46	1	# 0.97956
45	37	47	1	# 0.992105
46	37	48	1	# 0.97956
47	38	39	1	# 1.16781
48	38	43	ar	# 1.40562
49	39	40	ar	# 1.3616
50	39	49	1	# 0.98365
51	40	41	1	# 1.12355
52	40	50	1	# 0.983745
53	41	42	ar	# 1.30191
54	42	43	ar	# 1.21623
55	42	51	1	# 0.984255
56	43	54	1	# 0.98313
57	45	55	1	# 0.991273
58	45	56	1	# 0.991273
59	45	57	1	# 0.991273
60	47	58	1	# 0.99068
61	47	59	1	# 0.99068
62	47	60	1	# 0.99068
