@<TRIPOS>MOLECULE
*****
 126 134 0 0 0
SMALL
USER_CHARGES

@<TRIPOS>ATOM
	1	C	8.805464	-0.586961	-0.459718	C.2	1	LIG1	0.370260
	2	C	7.869222	-1.402085	0.224228	C.2	1	LIG1	-0.285180
	3	C	6.525004	-1.067410	0.280614	C.2	1	LIG1	-0.107105
	4	C	6.017716	0.094607	-0.330201	C.2	1	LIG1	0.124519
	5	C	6.947189	0.902140	-1.014188	C.2	1	LIG1	-0.157211
	6	C	8.292786	0.579533	-1.081566	C.2	1	LIG1	-0.257722
	7	H	8.196248	-2.295371	0.742541	H	1	LIG1	0.151910
	8	H	5.855931	-1.716039	0.840539	H	1	LIG1	0.118080
	9	H	6.602329	1.791612	-1.533433	H	1	LIG1	0.122163
	10	H	8.946486	1.229609	-1.650324	H	1	LIG1	0.152880
	11	N	10.147930	-0.912167	-0.519112	N.3	1	LIG1	-0.426404
	12	C	10.655113	-2.184709	-0.011281	C.3	1	LIG1	0.217779
	13	C	11.136580	-0.001231	-1.091710	C.3	1	LIG1	0.234729
	14	H	9.920192	-2.971707	-0.210513	H	1	LIG1	-0.008148
	15	C	11.025964	-2.159456	1.477464	C.3	1	LIG1	-0.189178
	16	H	11.539140	-2.445885	-0.604520	H	1	LIG1	0.021646
	17	H	10.857247	1.030334	-0.853741	H	1	LIG1	-0.017305
	18	C	11.338108	-0.169128	-2.603559	C.3	1	LIG1	-0.174173
	19	H	12.086059	-0.179360	-0.573500	H	1	LIG1	0.016343
	20	H	10.157474	-1.919861	2.099169	H	1	LIG1	0.042425
	21	H	11.797248	-1.406709	1.675521	H	1	LIG1	0.056093
	22	H	11.416168	-3.134706	1.791584	H	1	LIG1	0.047661
	23	H	12.102354	0.527425	-2.967930	H	1	LIG1	0.042876
	24	H	10.410005	0.020807	-3.151954	H	1	LIG1	0.036547
	25	H	11.666063	-1.186836	-2.843294	H	1	LIG1	0.050718
	26	S	3.367286	-0.714738	0.077470	S.2	1	LIG1	-0.169602
	27	S	-0.579677	1.312210	-0.085550	S.2	1	LIG1	-0.119445
	28	O	1.596804	2.441220	-2.784279	O.2	1	LIG1	-0.420644
	29	O	0.242234	-3.424432	-1.324599	O.2	1	LIG1	-0.464907
	30	O	1.403004	-1.416367	2.828713	O.2	1	LIG1	-0.475761
	31	O	2.209184	3.481844	1.739987	O.2	1	LIG1	-0.383462
	32	C	2.630024	1.737714	-0.340945	C.2	1	LIG1	0.122709
	33	C	0.875289	-2.381941	0.761271	C.2	1	LIG1	-0.127961
	34	C	2.077367	0.489768	-0.030550	C.2	1	LIG1	0.138213
	35	C	0.888583	-3.485788	-0.109778	C.2	1	LIG1	0.371052
	36	C	4.608751	0.463631	-0.268447	C.2	1	LIG1	0.037213
	37	C	1.377784	3.357890	-1.800669	C.2	1	LIG1	0.309818
	38	C	1.489555	-2.514091	2.028920	C.2	1	LIG1	0.337333
	39	C	-1.270869	-1.125800	0.423353	C.2	1	LIG1	-0.101219
	40	C	-1.842816	0.117476	0.165900	C.2	1	LIG1	0.000884
	41	C	0.693960	0.128152	0.139673	C.2	1	LIG1	0.130656
	42	C	1.514134	-4.682159	0.254100	C.2	1	LIG1	-0.289932
	43	C	1.873508	3.004727	-0.529344	C.2	1	LIG1	-0.070212
	44	C	0.130914	-1.137263	0.429806	C.2	1	LIG1	0.098910
	45	C	1.691439	3.895169	0.547001	C.2	1	LIG1	0.297156
	46	C	2.121308	-3.707658	2.393221	C.2	1	LIG1	-0.259312
	47	C	0.931689	-2.688330	-2.352583	C.3	1	LIG1	0.356250
	48	C	4.037504	1.705615	-0.464102	C.2	1	LIG1	-0.226192
	49	C	2.123665	-4.782350	1.500631	C.2	1	LIG1	-0.065427
	50	C	2.816003	3.725720	4.067034	C.3	1	LIG1	-0.104073
	51	C	-0.021864	-2.451128	-3.519977	C.3	1	LIG1	0.017331
	52	C	1.839154	-0.044466	4.735733	C.3	1	LIG1	-0.271354
	53	C	1.008132	5.104712	0.362381	C.2	1	LIG1	-0.291242
	54	C	0.703640	4.569490	-1.993770	C.2	1	LIG1	-0.279521
	55	C	2.081742	4.337124	2.877881	C.3	1	LIG1	0.325733
	56	C	0.524398	5.421599	-0.905961	C.2	1	LIG1	-0.043000
	57	C	2.181506	2.477032	4.706928	C.3	1	LIG1	0.017496
	58	C	2.089334	-1.397960	4.081561	C.3	1	LIG1	0.471951
	59	C	0.983957	1.176030	-4.711972	C.3	1	LIG1	-0.249495
	60	C	0.493005	-1.357660	-4.478371	C.3	1	LIG1	-0.088724
	61	C	0.873904	2.531447	-4.017475	C.3	1	LIG1	0.366019
	62	C	0.326064	0.054806	-3.897833	C.3	1	LIG1	0.328121
	63	C	2.415373	1.152299	3.965556	C.3	1	LIG1	0.359778
	64	H	-1.850982	-2.020743	0.617392	H	1	LIG1	0.099145
	65	H	1.501314	-5.512453	-0.444092	H	1	LIG1	0.148370
	66	H	2.594511	-3.810138	3.362422	H	1	LIG1	0.115091
	67	H	1.815663	-3.258851	-2.673584	H	1	LIG1	-0.031444
	68	H	1.285276	-1.738306	-1.941428	H	1	LIG1	-0.105327
	69	H	4.614108	2.600022	-0.669695	H	1	LIG1	0.103796
	70	H	2.609549	-5.710312	1.790105	H	1	LIG1	0.115495
	71	H	2.867114	4.517608	4.826766	H	1	LIG1	0.020609
	72	H	3.851926	3.515883	3.769609	H	1	LIG1	0.026552
	73	H	-0.995761	-2.153645	-3.110939	H	1	LIG1	-0.023318
	74	H	-0.180061	-3.393677	-4.057659	H	1	LIG1	0.012145
	75	H	2.275184	-0.083831	5.744348	H	1	LIG1	0.019625
	76	H	0.756277	0.080392	4.868637	H	1	LIG1	0.064503
	77	H	0.847367	5.788751	1.185984	H	1	LIG1	0.128406
	78	H	0.325940	4.847203	-2.970371	H	1	LIG1	0.123583
	79	H	1.017459	4.484699	3.113236	H	1	LIG1	-0.014226
	80	H	2.515452	5.319163	2.642607	H	1	LIG1	-0.024641
	81	H	-0.006655	6.358470	-1.049797	H	1	LIG1	0.117865
	82	H	1.101139	2.645197	4.829328	H	1	LIG1	-0.011244
	83	H	2.585603	2.380581	5.725056	H	1	LIG1	-0.007956
	84	H	3.163545	-1.563413	3.913818	H	1	LIG1	-0.048901
	85	H	1.713169	-2.208196	4.722102	H	1	LIG1	-0.040064
	86	H	2.046161	0.950967	-4.875482	H	1	LIG1	0.065993
	87	H	0.520737	1.262290	-5.704534	H	1	LIG1	0.030916
	88	H	-0.044510	-1.430300	-5.432901	H	1	LIG1	0.013872
	89	H	1.552392	-1.541430	-4.712391	H	1	LIG1	0.000132
	90	H	1.298904	3.332494	-4.638279	H	1	LIG1	-0.014204
	91	H	-0.177041	2.775172	-3.811939	H	1	LIG1	-0.020430
	92	H	-0.746968	0.269779	-3.788704	H	1	LIG1	-0.060862
	93	H	0.746788	0.089343	-2.888566	H	1	LIG1	-0.112631
	94	H	1.978394	1.194460	2.964323	H	1	LIG1	-0.147706
	95	H	3.496652	1.005540	3.825343	H	1	LIG1	-0.082374
	96	F	-7.070056	-0.166655	2.673538	F	1	LIG1	-0.186721
	97	F	-7.813196	-2.168203	2.262128	F	1	LIG1	-0.162449
	98	F	-5.673149	-1.814900	2.461040	F	1	LIG1	-0.181654
	99	O	-7.973937	-0.290425	0.185574	O.2	1	LIG1	-0.294165
	100	N	-5.049338	3.377848	-0.824960	N.1	1	LIG1	-0.430220
	101	N	-8.533394	4.349451	-0.960548	N.1	1	LIG1	-0.456330
	102	N	-11.204010	0.947517	-0.192741	N.1	1	LIG1	-0.473597
	103	C	-3.203460	0.508027	0.091815	C.2	1	LIG1	0.037225
	104	H	-3.390201	1.558364	-0.112383	H	1	LIG1	0.152566
	105	C	-4.281106	-0.336982	0.258596	C.2	1	LIG1	-0.323615
	106	H	-4.085586	-1.382860	0.471211	H	1	LIG1	0.145480
	107	C	-5.645010	0.024647	0.174374	C.2	1	LIG1	0.204117
	108	C	-6.287649	1.212780	-0.162232	C.2	1	LIG1	-0.251363
	109	C	-7.711705	1.004316	-0.119374	C.2	1	LIG1	0.438322
	110	C	-6.749871	-0.997733	0.467409	C.3	1	LIG1	-0.024343
	111	C	-6.833612	-1.297292	1.990546	C.3	1	LIG1	0.563403
	112	C	-6.677448	-2.247118	-0.411066	C.2	1	LIG1	0.173686
	113	C	-7.210426	-2.174754	-1.705243	C.2	1	LIG1	-0.116386
	114	H	-7.707099	-1.269271	-2.035483	H	1	LIG1	0.086754
	115	C	-7.126719	-3.266825	-2.566237	C.2	1	LIG1	-0.086322
	116	H	-7.551584	-3.194857	-3.563396	H	1	LIG1	0.109327
	117	C	-6.507473	-4.445963	-2.148729	C.2	1	LIG1	-0.098473
	118	H	-6.444088	-5.298065	-2.819659	H	1	LIG1	0.099080
	119	C	-5.976581	-4.524323	-0.862334	C.2	1	LIG1	-0.042387
	120	H	-5.499108	-5.438916	-0.522193	H	1	LIG1	0.090751
	121	C	-6.058825	-3.433466	0.004924	C.2	1	LIG1	-0.205874
	122	H	-5.649382	-3.524568	1.003322	H	1	LIG1	0.123742
	123	C	-5.645328	2.421097	-0.529114	C.1	1	LIG1	0.376208
	124	C	-8.778197	1.845085	-0.352455	C.2	1	LIG1	-0.395691
	125	C	-8.615747	3.220374	-0.686501	C.1	1	LIG1	0.438976
	126	C	-10.111010	1.343881	-0.259466	C.1	1	LIG1	0.459839
@<TRIPOS>BOND
1	1	2	2	# 1.55654
2	1	6	1	# 0.975435
3	1	11	1	# 0.977405
4	2	3	1	# 0.982715
5	2	7	1	# 0.983635
6	3	4	2	# 1.57793
7	3	8	1	# 0.9831
8	4	5	1	# 0.972765
9	4	36	1	# 0.97385
10	5	6	2	# 1.69384
11	5	9	1	# 0.98426
12	6	10	1	# 0.983525
13	11	12	1	# 0.979695
14	11	13	1	# 0.97969
15	12	14	1	# 0.982615
16	12	15	1	# 0.9853
17	12	16	1	# 0.984335
18	13	17	1	# 0.98265
19	13	18	1	# 0.98532
20	13	19	1	# 0.984285
21	15	20	1	# 0.991555
22	15	21	1	# 0.991615
23	15	22	1	# 0.990435
24	18	23	1	# 0.990425
25	18	24	1	# 0.99157
26	18	25	1	# 0.99161
27	26	34	1	# 0.97028
28	26	36	1	# 0.970485
29	27	40	1	# 0.970055
30	27	41	1	# 0.97188
31	28	37	1	# 0.98198
32	28	61	1	# 0.98259
33	29	35	1	# 0.981775
34	29	47	1	# 0.97764
35	30	38	1	# 0.981735
36	30	58	1	# 0.982535
37	31	45	1	# 0.981695
38	31	55	1	# 0.982325
39	32	34	2	# 1.64335
40	32	43	1	# 0.965905
41	32	48	1	# 0.973155
42	33	35	2	# 1.61196
43	33	38	1	# 0.96533
44	33	44	1	# 0.9662
45	34	41	1	# 0.976095
46	35	42	1	# 0.97552
47	36	48	2	# 1.68028
48	37	43	1	# 0.96596
49	37	54	2	# 1.59896
50	38	46	2	# 1.61053
51	39	40	2	# 1.61244
52	39	44	1	# 0.974305
53	39	64	1	# 0.980175
54	40	103	1	# 0.98047
55	41	44	2	# 1.59331
56	42	49	2	# 1.65502
57	42	65	1	# 0.983595
58	43	45	2	# 1.58705
59	45	53	1	# 0.97624
60	46	49	1	# 0.98058
61	46	66	1	# 0.982855
62	47	51	1	# 0.984905
63	47	67	1	# 0.981485
64	47	68	1	# 0.981145
65	48	69	1	# 0.979995
66	49	70	1	# 0.98481
67	50	55	1	# 0.98457
68	50	57	1	# 0.98546
69	50	71	1	# 0.9826
70	50	72	1	# 0.98253
71	51	60	1	# 0.98484
72	51	73	1	# 0.98248
73	51	74	1	# 0.98568
74	52	58	1	# 0.985235
75	52	63	1	# 0.9849
76	52	75	1	# 0.98176
77	52	76	1	# 0.98227
78	53	56	2	# 1.64823
79	53	77	1	# 0.9828
80	54	56	1	# 0.980625
81	54	78	1	# 0.98288
82	55	79	1	# 0.98073
83	55	80	1	# 0.98194
84	56	81	1	# 0.98467
85	57	63	1	# 0.985595
86	57	82	1	# 0.983505
87	57	83	1	# 0.984575
88	58	84	1	# 0.98082
89	58	85	1	# 0.981995
90	59	61	1	# 0.984815
91	59	62	1	# 0.9852
92	59	86	1	# 0.982515
93	59	87	1	# 0.982395
94	60	62	1	# 0.98567
95	60	88	1	# 0.98509
96	60	89	1	# 0.98363
97	61	90	1	# 0.98256
98	61	91	1	# 0.98177
99	62	92	1	# 0.983075
100	62	93	1	# 0.98121
101	63	94	1	# 0.982295
102	63	95	1	# 0.983075
103	96	111	1	# 0.948145
104	97	111	1	# 0.94818
105	98	111	1	# 0.942525
106	99	109	1	# 0.982325
107	99	110	1	# 0.97217
108	100	123	3	# 2.90173
109	101	125	3	# 2.90564
110	102	126	3	# 2.90885
111	103	104	1	# 0.97879
112	103	105	2	# 1.70341
113	105	106	1	# 0.97951
114	105	107	1	# 0.977715
115	107	108	2	# 1.64202
116	107	110	1	# 0.95873
117	108	109	1	# 0.965765
118	108	123	1	# 0.97212
119	109	124	2	# 1.68108
120	110	111	1	# 0.94199
121	110	112	1	# 0.96054
122	112	113	1	# 0.975375
123	112	121	2	# 1.62993
124	113	114	1	# 0.984195
125	113	115	2	# 1.65565
126	115	116	1	# 0.98523
127	115	117	1	# 0.98273
128	117	118	1	# 0.98539
129	117	119	2	# 1.65057
130	119	120	1	# 0.985295
131	119	121	1	# 0.98128
132	121	122	1	# 0.982445
133	124	125	1	# 0.96893
134	124	126	1	# 0.968585
