@<TRIPOS>MOLECULE
*****
 32 33 0 0 0
SMALL
USER_CHARGES

@<TRIPOS>ATOM
	1	C	-5.558739	-0.083982	0.000033	C.2	1	LIG1	0.010244
	2	C	-4.810031	-1.274590	-0.000171	C.2	1	LIG1	-0.102875
	3	C	-4.893108	1.155017	0.000200	C.2	1	LIG1	-0.094268
	4	C	-3.506695	1.201018	0.000164	C.2	1	LIG1	-0.187344
	5	H	-5.471423	2.073361	0.000359	H	1	LIG1	0.117747
	6	C	-3.423677	-1.226005	-0.000210	C.2	1	LIG1	-0.175164
	7	H	-5.324403	-2.230229	-0.000300	H	1	LIG1	0.120252
	8	C	-2.745525	0.012118	-0.000041	C.2	1	LIG1	0.291405
	9	H	-2.993842	2.157232	0.000298	H	1	LIG1	0.126515
	10	C	-1.325878	0.061107	-0.000078	C.1	1	LIG1	-0.206473
	11	H	-2.846816	-2.145044	-0.000373	H	1	LIG1	0.121961
	12	C	-0.109122	0.103373	-0.000048	C.1	1	LIG1	-0.076556
	13	C	1.311590	0.155705	-0.000048	C.2	1	LIG1	0.145627
	14	C	2.078685	-1.023038	0.000082	C.2	1	LIG1	-0.145657
	15	C	1.991873	1.394455	-0.000183	C.2	1	LIG1	-0.123945
	16	C	3.470589	-0.980427	0.000075	C.2	1	LIG1	-0.221221
	17	H	1.572672	-1.983572	0.000192	H	1	LIG1	0.123682
	18	C	3.374976	1.444251	-0.000191	C.2	1	LIG1	-0.229443
	19	H	1.416395	2.314927	-0.000280	H	1	LIG1	0.119527
	20	C	4.128872	0.257873	-0.000063	C.2	1	LIG1	0.368476
	21	H	4.029257	-1.908963	0.000174	H	1	LIG1	0.115397
	22	H	3.903647	2.392142	-0.000295	H	1	LIG1	0.138372
	23	C	-6.990009	-0.133110	0.000072	C.1	1	LIG1	0.335366
	24	N	-8.153241	-0.173249	0.000102	N.1	1	LIG1	-0.450587
	25	O	5.478459	0.417665	-0.000097	O.3	1	LIG1	-0.421539
	26	C	6.315356	-0.741995	0.000146	C.3	1	LIG1	0.436150
	27	C	7.756603	-0.264345	0.000146	C.3	1	LIG1	-0.270136
	28	H	6.102331	-1.352035	-0.888791	H	1	LIG1	-0.041237
	29	H	6.102250	-1.351736	0.889268	H	1	LIG1	-0.041195
	30	H	7.962164	0.341473	-0.887751	H	1	LIG1	0.080634
	31	H	8.436418	-1.123010	0.000693	H	1	LIG1	0.055609
	32	H	7.961811	0.342315	0.887552	H	1	LIG1	0.080677
@<TRIPOS>BOND
1	1	2	2	# 1.58897
2	1	3	1	# 0.97238
3	1	23	1	# 0.97557
4	2	6	1	# 0.98289
5	2	7	1	# 0.985015
6	3	4	2	# 1.67792
7	3	5	1	# 0.985015
8	4	8	1	# 0.972245
9	4	9	1	# 0.985055
10	6	8	2	# 1.57876
11	6	11	1	# 0.985055
12	8	10	1	# 0.97483
13	10	12	3	# 2.80523
14	12	13	1	# 0.975075
15	13	14	2	# 1.59483
16	13	15	1	# 0.971645
17	14	16	1	# 0.981115
18	14	17	1	# 0.98516
19	15	18	2	# 1.69383
20	15	19	1	# 0.985175
21	16	20	2	# 1.59717
22	16	21	1	# 0.982935
23	18	20	1	# 0.976215
24	18	22	1	# 0.983455
25	20	25	1	# 0.981915
26	23	24	3	# 2.91941
27	25	26	1	# 0.982785
28	26	27	1	# 0.99135
29	26	28	1	# 0.98144
30	26	29	1	# 0.98144
31	27	30	1	# 0.990955
32	27	31	1	# 0.989935
33	27	32	1	# 0.990955
