@<TRIPOS>MOLECULE
*****
 27 29 0 0 0
SMALL
GASTEIGER
Energy = 0

@<TRIPOS>ATOM
      1 C1         -2.6515    1.1669   -0.2645 C.ar    1  LIG111     -0.0612
      2 C2         -2.7763    2.5236    0.0253 C.ar    1  LIG111     -0.0612
      3 C3         -1.6383    3.3040    0.2356 C.ar    1  LIG111     -0.0535
      4 H4         -3.7616    2.9599    0.1484 H       1  LIG111      0.0618
      5 C5         -1.3798    0.5998   -0.3045 C.ar    1  LIG111     -0.0540
      6 H6         -3.5335    0.5473   -0.3857 H       1  LIG111      0.0618
      7 C7         -0.2462    1.3933   -0.1122 C.ar    1  LIG111     -0.0173
      8 H8         -1.2816   -0.4688   -0.4595 H       1  LIG111      0.0624
      9 C9          0.8197    3.5470    0.2059 C.ar    1  LIG111     -0.0139
     10 C10        -0.3506    2.7757    0.0933 C.ar    1  LIG111     -0.0105
     11 H11        -1.7947    4.2781    0.6661 H       1  LIG111      0.0624
     12 C12         0.9960    0.7589   -0.0852 C.ar    1  LIG111     -0.0540
     13 C13         2.0314    2.8748    0.3981 C.ar    1  LIG111     -0.0537
     14 C14         2.1330    1.4949    0.2342 C.ar    1  LIG111     -0.0606
     15 H15         1.0737   -0.3138   -0.2227 H       1  LIG111      0.0624
     16 H16         3.0900    0.9989    0.3518 H       1  LIG111      0.0618
     17 H17         2.9121    3.4110    0.7277 H       1  LIG111      0.0624
     18 C18         0.9115    5.0556    0.0388 C.2     1  LIG11      -0.0359
     19 C19         2.0523    5.6704   -0.2971 C.2     1  LIG11      -0.0580
     20 C20        -0.1981    6.0683    0.1913 C.3     1  LIG11      -0.0086
     21 C21         1.8303    7.1170   -0.3608 C.2     1  LIG11      -0.0651
     22 H22         3.0211    5.2248   -0.5122 H       1  LIG11       0.0620
     23 C23         0.5491    7.3437   -0.0754 C.2     1  LIG11      -0.0797
     24 H24         2.5811    7.8717   -0.5916 H       1  LIG11       0.0615
     25 H25        -0.6100    6.0932    1.2110 H       1  LIG1        0.0356
     26 H26        -0.9867    5.9520   -0.5669 H       1  LIG1        0.0356
     27 H27         0.0956    8.3334   -0.0426 H       1  LIG1        0.0575
@<TRIPOS>BOND
     1     1     2   ar
     2     2     3   ar
     3     2     4    1
     4     1     5   ar
     5     1     6    1
     6     5     7   ar
     7     5     8    1
     8    10     7   ar
     9    10     3   ar
    10    10     9   ar
    11     3    11    1
    12     7    12   ar
    13     9    13   ar
    14    12    14   ar
    15    12    15    1
    16    14    13   ar
    17    14    16    1
    18    13    17    1
    19     9    18    1
    20    18    19    2
    21    18    20    1
    22    19    21    1
    23    19    22    1
    24    21    23    2
    25    21    24    1
    26    20    23    1
    27    20    25    1
    28    20    26    1
    29    23    27    1
