@<TRIPOS>MOLECULE
*****
 73 75 0 0 0
SMALL
GASTEIGER
Energy = 0

@<TRIPOS>ATOM
      1 C1          -0.1565   -3.0589   -0.1362 C.3     1  LIG1       -0.0335
      2 C2           0.7850   -1.8294   -0.1965 C.3     1  LIG1        0.0260
      3 C3           0.2964   -0.5163   -0.7891 C.2     1  LIG1       -0.0704
      4 C4           1.1294   -1.6009    1.2611 C.2     1  LIG1       -0.0704
      5 C5           1.7056   -2.1787   -1.3590 C.2     1  LIG1       -0.0704
      6 C6           0.8200    0.7156   -0.6182 C.2     1  LIG1       -0.0646
      7 H7          -0.4562   -0.6023   -1.5726 H       1  LIG1        0.0584
      8 C8           2.3615   -1.2322    1.5744 C.2     1  LIG1       -0.0646
      9 H9           0.3750   -1.6540    2.0451 H       1  LIG1        0.0584
     10 C10          2.9671   -2.6142   -1.4720 C.2     1  LIG1       -0.0646
     11 H11          1.2306   -2.0717   -2.3353 H       1  LIG1        0.0584
     12 C12          1.7857    1.2318    0.3865 C.2     1  LIG1       -0.0620
     13 H13          0.4000    1.4937   -1.2548 H       1  LIG1        0.0615
     14 C14          2.9797   -0.8277    2.8502 C.2     1  LIG1       -0.0620
     15 H15          2.8332   -1.1938    0.6215 H       1  LIG1        0.0616
     16 C16          3.9288   -2.9239   -0.3977 C.2     1  LIG1       -0.0620
     17 H17          3.2690   -2.7350   -2.5177 H       1  LIG1        0.0615
     18 C18          2.9722    1.8714    0.3398 C.2     1  LIG1       -0.0620
     19 H19          1.4065    1.1077    1.4002 H       1  LIG1        0.0617
     20 C20          4.1278   -0.1383    2.8488 C.2     1  LIG1       -0.0620
     21 H21          2.4903   -1.0755    3.7911 H       1  LIG1        0.0617
     22 C22          4.9503   -2.0938   -0.1693 C.2     1  LIG1       -0.0620
     23 H23          4.3888   -3.5906   -1.1189 H       1  LIG1        0.0617
     24 C24          3.9020    2.2865   -0.7431 C.2     1  LIG1       -0.0646
     25 H25          3.3413    2.1620    1.3233 H       1  LIG1        0.0617
     26 C26          4.7560    0.2312    1.5677 C.2     1  LIG1       -0.0646
     27 H27          4.5881    0.1663    3.7880 H       1  LIG1        0.0617
     28 C28          5.5896   -1.3136   -1.2393 C.2     1  LIG1       -0.0646
     29 H29          5.2493   -1.9645    0.8646 H       1  LIG1        0.0617
     30 C30          5.2198    2.0372   -0.9229 C.2     1  LIG1       -0.0704
     31 H31          3.4443    2.9447   -1.4816 H       1  LIG1        0.0615
     32 C32          5.8673    0.8746    1.2496 C.2     1  LIG1       -0.0704
     33 H33          4.3285    0.0480    0.6039 H       1  LIG1        0.0615
     34 C34          6.0903   -0.0706   -1.2485 C.2     1  LIG1       -0.0704
     35 H35          5.6519   -1.8318   -2.1957 H       1  LIG1        0.0615
     36 C36          6.1626    1.0531   -0.2260 C.3     1  LIG1        0.0260
     37 H37          5.6464    2.5101   -1.8074 H       1  LIG1        0.0584
     38 H38          6.4992    1.2659    2.0456 H       1  LIG1        0.0584
     39 H39          6.4796    0.2022   -2.2293 H       1  LIG1        0.0584
     40 C40          7.6832    1.3614   -0.2276 C.3     1  LIG1       -0.0335
     41 C41          8.5123    0.1568    0.3244 C.3     1  LIG1       -0.0334
     42 H42          7.8599    2.2378    0.4141 H       1  LIG1        0.0283
     43 H43          8.0394    1.6107   -1.2382 H       1  LIG1        0.0283
     44 C44          0.5724   -4.3095    0.4540 C.3     1  LIG1       -0.0334
     45 H45         -0.5554   -3.2975   -1.1336 H       1  LIG1        0.0283
     46 H46         -1.0051   -2.8083    0.5185 H       1  LIG1        0.0283
     47 C47          1.4202   -5.0846   -0.5314 C.2     1  LIG1       -0.0879
     48 H48         -0.2265   -5.0049    0.7521 H       1  LIG1        0.0308
     49 H49          1.1443   -4.0601    1.3574 H       1  LIG1        0.0308
     50 C50          8.7430   -0.9685   -0.6614 C.2     1  LIG1       -0.0879
     51 H51          8.1007   -0.2295    1.2654 H       1  LIG1        0.0308
     52 H52          9.5132    0.5569    0.5468 H       1  LIG1        0.0308
     53 C53          2.6413   -5.6220   -0.3597 C.2     1  LIG1       -0.0879
     54 H54          0.9396   -5.2931   -1.4866 H       1  LIG1        0.0569
     55 C55          8.5554   -2.2909   -0.5032 C.2     1  LIG1       -0.0879
     56 H56          9.1763   -0.6619   -1.6130 H       1  LIG1        0.0569
     57 C57          3.5614   -5.5459    0.8454 C.3     1  LIG1       -0.0348
     58 H58          3.0013   -6.2076   -1.2049 H       1  LIG1        0.0569
     59 C59          7.9896   -3.0536    0.6788 C.3     1  LIG1       -0.0348
     60 H60          8.8569   -2.9073   -1.3497 H       1  LIG1        0.0569
     61 C61          7.1360   -4.2397    0.1401 C.3     1  LIG1       -0.0496
     62 H62          7.3889   -2.3923    1.3139 H       1  LIG1        0.0307
     63 H63          8.8101   -3.4655    1.2847 H       1  LIG1        0.0307
     64 C64          6.0907   -4.8212    1.1410 C.3     1  LIG1       -0.0525
     65 H65          7.8080   -5.0489   -0.1838 H       1  LIG1        0.0268
     66 H66          6.6196   -3.8659   -0.7519 H       1  LIG1        0.0268
     67 C67          5.0567   -5.7489    0.4286 C.3     1  LIG1       -0.0496
     68 H68          5.5663   -4.0019    1.6446 H       1  LIG1        0.0265
     69 H69          6.6219   -5.3963    1.9142 H       1  LIG1        0.0265
     70 H70          5.3347   -6.7955    0.6258 H       1  LIG1        0.0268
     71 H71          5.1512   -5.6059   -0.6558 H       1  LIG1        0.0268
     72 H72          3.2952   -6.3553    1.5412 H       1  LIG1        0.0307
     73 H73          3.4113   -4.5920    1.3676 H       1  LIG1        0.0307
@<TRIPOS>BOND
     1     1     2    1
     2     2     3    1
     3     2     4    1
     4     2     5    1
     5     3     6    2
     6     3     7    1
     7     4     8    2
     8     4     9    1
     9     5    10    2
    10     5    11    1
    11     6    12    1
    12     6    13    1
    13     8    14    1
    14     8    15    1
    15    10    16    1
    16    10    17    1
    17    12    18    2
    18    12    19    1
    19    14    20    2
    20    14    21    1
    21    16    22    2
    22    16    23    1
    23    18    24    1
    24    18    25    1
    25    20    26    1
    26    20    27    1
    27    22    28    1
    28    22    29    1
    29    24    30    2
    30    24    31    1
    31    26    32    2
    32    26    33    1
    33    28    34    2
    34    28    35    1
    35    30    36    1
    36    30    37    1
    37    32    36    1
    38    32    38    1
    39    34    36    1
    40    34    39    1
    41    36    40    1
    42    40    41    1
    43    40    42    1
    44    40    43    1
    45     1    44    1
    46     1    45    1
    47     1    46    1
    48    44    47    1
    49    44    48    1
    50    44    49    1
    51    41    50    1
    52    41    51    1
    53    41    52    1
    54    47    53    2
    55    47    54    1
    56    50    55    2
    57    50    56    1
    58    53    57    1
    59    53    58    1
    60    55    59    1
    61    55    60    1
    62    59    61    1
    63    59    62    1
    64    59    63    1
    65    61    64    1
    66    61    65    1
    67    61    66    1
    68    64    67    1
    69    64    68    1
    70    64    69    1
    71    67    57    1
    72    67    70    1
    73    67    71    1
    74    57    72    1
    75    57    73    1
