@<TRIPOS>MOLECULE
*****
 26 29 0 0 0
SMALL
GASTEIGER
Energy = 0

@<TRIPOS>ATOM
      1 C1          -2.7122    1.4470   -0.1549 C.ar    1  LIG1       -0.0606
      2 C2          -2.7134    2.8410   -0.1243 C.ar    1  LIG1       -0.0540
      3 C3          -1.5076    3.5425   -0.0617 C.ar    1  LIG1       -0.0162
      4 H4          -3.6564    3.3751   -0.1562 H       1  LIG1        0.0624
      5 C5          -1.5027    0.7548   -0.1050 C.ar    1  LIG1       -0.0540
      6 H6          -3.6485    0.9030   -0.2118 H       1  LIG1        0.0618
      7 C7          -0.2966    1.4544   -0.0270 C.ar    1  LIG1       -0.0167
      8 H8          -1.5072   -0.3292   -0.1222 H       1  LIG1        0.0624
      9 C9           0.9321    3.5396    0.0337 C.ar    1  LIG1       -0.0091
     10 C10         -0.2885    2.8527   -0.0193 C.ar    1  LIG1       -0.0030
     11 C11          0.9027    0.7439    0.0473 C.ar    1  LIG1       -0.0540
     12 C12          2.1261    2.8226    0.1593 C.ar    1  LIG1       -0.0534
     13 C13          2.1120    1.4280    0.1595 C.ar    1  LIG1       -0.0606
     14 H14          0.8998   -0.3403    0.0440 H       1  LIG1        0.0624
     15 H15          3.0408    0.8761    0.2522 H       1  LIG1        0.0618
     16 H16          3.0735    3.3302    0.2919 H       1  LIG1        0.0624
     17 C17          0.9096    4.9370   -0.0220 C.ar    1  LIG1       -0.0101
     18 C18          1.7674    5.6624   -0.0373 C.2     1  LIG1       -0.0534
     19 C19         -0.3108    5.6014   -0.0130 C.ar    1  LIG1       -0.0167
     20 C20          1.3237    7.0774   -0.0357 C.2     1  LIG1       -0.0606
     21 H21          2.7651    5.4317   -0.4052 H       1  LIG1        0.0624
     22 C22         -0.0087    7.0724   -0.0152 C.2     1  LIG1       -0.0540
     23 H23          1.9659    7.9563   -0.0715 H       1  LIG1        0.0617
     24 H24         -0.6995    7.9141   -0.0214 H       1  LIG1        0.0624
     25 C25         -1.5340    4.9387   -0.0351 C.ar    1  LIG1       -0.0463
     26 H26         -2.4654    5.4928   -0.0519 H       1  LIG1        0.0630
@<TRIPOS>BOND
     1     1     2   ar
     2     2     3   ar
     3     2     4    1
     4     1     5   ar
     5     1     6    1
     6     5     7   ar
     7     5     8    1
     8    10     7   ar
     9    10     3   ar
    10    10     9   ar
    11     7    11   ar
    12     9    12   ar
    13    11    13   ar
    14    11    14    1
    15    13    12   ar
    16    13    15    1
    17    12    16    1
    18     9    17   ar
    19    17    18    2
    20    17    19   ar
    21    18    20    1
    22    18    21    1
    23    20    22    2
    24    20    23    1
    25    19    22    1
    26    22    24    1
    27     3    25   ar
    28    25    19   ar
    29    25    26    1
