@<TRIPOS>MOLECULE
*****
 75 78 0 0 0
SMALL
GASTEIGER

@<TRIPOS>ATOM
      1 C           0.0276   -2.8136    0.0083 C.3     1  LIG1       -0.0334
      2 C           1.0946   -1.6912   -0.2005 C.3     1  LIG1        0.0265
      3 C           0.5216   -0.2894   -0.7045 C.2     1  LIG1       -0.0704
      4 C           1.7475   -1.4430    1.1549 C.2     1  LIG1       -0.0704
      5 C           1.8872   -2.0904   -1.4664 C.2     1  LIG1       -0.0632
      6 C           0.9234    1.0043   -0.5510 C.2     1  LIG1       -0.0646
      7 H          -0.2367   -0.4300   -1.4796 H       1  LIG1        0.0584
      8 C           2.5727   -2.1084    1.9765 C.2     1  LIG1       -0.0646
      9 H           1.4240   -0.5134    1.6049 H       1  LIG1        0.0584
     10 C           3.1681   -2.3805   -1.7308 C.ar    1  LIG1       -0.0278
     11 H           1.2817   -1.9478   -2.3666 H       1  LIG1        0.0590
     12 C           1.7636    1.6099    0.4688 C.2     1  LIG1       -0.0620
     13 C           3.2705   -1.4320    3.0582 C.2     1  LIG1       -0.0620
     14 H           2.8923   -3.1181    1.7981 H       1  LIG1        0.0615
     15 C           4.1229   -2.6024   -0.6856 C.ar    1  LIG1       -0.0543
     16 C           2.8870    2.3475    0.5089 C.2     1  LIG1       -0.0620
     17 H           1.3068    1.4856    1.4545 H       1  LIG1        0.0617
     18 C           4.1821   -0.4622    2.8404 C.2     1  LIG1       -0.0620
     19 H           3.0891   -1.7972    4.0648 H       1  LIG1        0.0617
     20 C           5.2164   -1.8395   -0.6887 C.ar    1  LIG1       -0.0543
     21 H           3.9190   -3.3194    0.0752 H       1  LIG1        0.0624
     22 C           3.8360    2.8764   -0.4460 C.2     1  LIG1       -0.0646
     23 H           3.1796    2.6560    1.5182 H       1  LIG1        0.0617
     24 C           4.5250    0.0027    1.5127 C.2     1  LIG1       -0.0646
     25 H           4.7182   -0.0322    3.6814 H       1  LIG1        0.0617
     26 C           5.3341   -0.8856   -1.7577 C.ar    1  LIG1       -0.0278
     27 H           5.9271   -1.8607    0.1133 H       1  LIG1        0.0624
     28 C           5.1350    2.5302   -0.6412 C.2     1  LIG1       -0.0704
     29 C           5.5256    0.8086    1.1520 C.2     1  LIG1       -0.0704
     30 H           3.8861   -0.3207    0.7025 H       1  LIG1        0.0615
     31 C           5.6953    0.3820   -1.5306 C.2     1  LIG1       -0.0632
     32 C           5.9246    1.2387   -0.2686 C.3     1  LIG1        0.0265
     33 H           5.6820    3.1673   -1.3391 H       1  LIG1        0.0584
     34 H           6.1177    1.2441    1.9560 H       1  LIG1        0.0584
     35 H           5.7611    0.9864   -2.4398 H       1  LIG1        0.0590
     36 C           7.4879    1.3978   -0.1877 C.3     1  LIG1       -0.0334
     37 C           8.2939    0.1869    0.4264 C.3     1  LIG1       -0.0334
     38 H           7.7059    2.2749    0.4402 H       1  LIG1        0.0283
     39 H           7.9065    1.6419   -1.1743 H       1  LIG1        0.0283
     40 C           0.5344   -4.2162    0.5160 C.3     1  LIG1       -0.0334
     41 H          -0.5353   -2.9712   -0.9230 H       1  LIG1        0.0283
     42 H          -0.7155   -2.4562    0.7360 H       1  LIG1        0.0283
     43 C           1.3586   -5.0675   -0.4266 C.2     1  LIG1       -0.0879
     44 H          -0.3766   -4.8007    0.7106 H       1  LIG1        0.0308
     45 H           1.0131   -4.1402    1.4929 H       1  LIG1        0.0308
     46 C           8.6645   -0.9696   -0.4742 C.2     1  LIG1       -0.0879
     47 H           7.8298   -0.1847    1.3438 H       1  LIG1        0.0308
     48 H           9.2542    0.6128    0.7510 H       1  LIG1        0.0308
     49 C           2.5308   -5.7255   -0.2796 C.2     1  LIG1       -0.0879
     50 H           0.8668   -5.2048   -1.3925 H       1  LIG1        0.0569
     51 C           8.5893   -2.3045   -0.2711 C.2     1  LIG1       -0.0879
     52 H           9.1296   -0.6540   -1.4096 H       1  LIG1        0.0569
     53 C           3.5431   -5.8160    0.8553 C.3     1  LIG1       -0.0348
     54 H           2.8360   -6.3133   -1.1494 H       1  LIG1        0.0569
     55 C           7.9996   -3.1277    0.8697 C.3     1  LIG1       -0.0348
     56 H           8.9996   -2.9231   -1.0724 H       1  LIG1        0.0569
     57 C           7.1928   -4.3451    0.3236 C.3     1  LIG1       -0.0496
     58 H           7.3806   -2.5042    1.5213 H       1  LIG1        0.0307
     59 H           8.8229   -3.5071    1.4862 H       1  LIG1        0.0307
     60 C           5.9755   -4.8027    1.1739 C.3     1  LIG1       -0.0525
     61 H           7.8765   -5.1963    0.2086 H       1  LIG1        0.0268
     62 H           6.8441   -4.1141   -0.6900 H       1  LIG1        0.0268
     63 C           5.0128   -5.6989    0.3405 C.3     1  LIG1       -0.0496
     64 H           5.4424   -3.9256    1.5509 H       1  LIG1        0.0265
     65 H           6.3249   -5.3553    2.0535 H       1  LIG1        0.0265
     66 H           5.4453   -6.7069    0.2908 H       1  LIG1        0.0268
     67 H           5.0020   -5.3384   -0.6953 H       1  LIG1        0.0268
     68 H           3.4283   -6.8010    1.3245 H       1  LIG1        0.0307
     69 H           3.3353   -5.0843    1.6341 H       1  LIG1        0.0307
     70 C           3.7179   -2.0899   -3.0677 C.ar    1  LIG1       -0.0543
     71 C           4.8230   -1.3059   -3.0798 C.ar    1  LIG1       -0.0543
     72 H           5.2945   -0.9633   -3.9904 H       1  LIG1        0.0624
     73 H           3.2207   -2.4331   -3.9645 H       1  LIG1        0.0624
     74 H           3.4834    3.7860   -0.9327 H       1  LIG1        0.0615
     75 H           0.4298    1.7521   -1.1735 H       1  LIG1        0.0615
@<TRIPOS>BOND
     1     1     2    1
     2     2     3    1
     3     2     4    1
     4     2     5    1
     5     3     6    2
     6     3     7    1
     7     4     8    2
     8     4     9    1
     9     5    10    2
    10     5    11    1
    11     6    12    1
    12     8    13    1
    13     8    14    1
    14    10    15   ar
    15    12    16    2
    16    12    17    1
    17    13    18    2
    18    13    19    1
    19    15    20   ar
    20    15    21    1
    21    16    22    1
    22    16    23    1
    23    18    24    1
    24    18    25    1
    25    20    26   ar
    26    20    27    1
    27    22    28    2
    28    24    29    2
    29    24    30    1
    30    26    31    2
    31    28    32    1
    32    28    33    1
    33    29    32    1
    34    29    34    1
    35    31    32    1
    36    31    35    1
    37    32    36    1
    38    36    37    1
    39    36    38    1
    40    36    39    1
    41     1    40    1
    42     1    41    1
    43     1    42    1
    44    40    43    1
    45    40    44    1
    46    40    45    1
    47    37    46    1
    48    37    47    1
    49    37    48    1
    50    43    49    2
    51    43    50    1
    52    46    51    2
    53    46    52    1
    54    49    53    1
    55    49    54    1
    56    51    55    1
    57    51    56    1
    58    55    57    1
    59    55    58    1
    60    55    59    1
    61    57    60    1
    62    57    61    1
    63    57    62    1
    64    60    63    1
    65    60    64    1
    66    60    65    1
    67    63    53    1
    68    63    66    1
    69    63    67    1
    70    53    68    1
    71    53    69    1
    72    10    70   ar
    73    26    71   ar
    74    71    70   ar
    75    71    72    1
    76    70    73    1
    77    22    74    1
    78     6    75    1
